<?xml version="1.0" encoding="UTF-8"?>

<!-- generated on 2024-11-12 18:21:38 by Eclipse SUMO duarouter Version 1.21.0
<duarouterConfiguration xmlns:xsi="http://www.w3.org/2001/XMLSchema-instance" xsi:noNamespaceSchemaLocation="http://sumo.dlr.de/xsd/duarouterConfiguration.xsd">

    <input>
        <net-file value="Map_Smartseille.net.xml"/>
        <route-files value="flows.rou.xml"/>
    </input>

    <output>
        <output-file value="flows_fixed_v2.rou.xml"/>
    </output>

</duarouterConfiguration>
-->

<routes xmlns:xsi="http://www.w3.org/2001/XMLSchema-instance" xsi:noNamespaceSchemaLocation="http://sumo.dlr.de/xsd/routes_file.xsd">
    <vType id="car" length="5.00" maxSpeed="13.89" accel="2.6" decel="4.5"/>
    <vehicle id="flow2.0" type="car" depart="0.00">
        <route edges="758926614#0 758926614#1 758926614#2 758926614#3 758926623#0 758926623#1 758926623#2 759179145#0 759179145#1 759179145#2 6310614#0 6310614#1 6310614#2 6310614#3 6310614#4 6310614#5 6310614#6 6310614#7 758926632#0 758926632#1 758926632#2 758926632#3 758926626"/>
    </vehicle>

 <vehicle id="flow1.0" type="car" depart="0.00">
        <route edges="-355037966#4 -355037966#3 -355037966#2 -355037966#1 -355037966#0 -758926627#3 -758926627#2 -758926627#1 -758926627#0 758926632#0 758926632#1 758926632#2 758926632#3 758926626 758926625#0 758926625#1 758926625#2 758926625#3 -759179145#2 -759179145#1 -759179145#0 6310625#0 6310625#1 758926622"/>
    </vehicle>


    <vType id="truck" length="10.00" maxSpeed="8.33" accel="1.0" decel="3.0"/>
    <vehicle id="flow3.0" type="truck" depart="0.00">
        <route edges="-758926622 460101507#0 460101507#1 -758926626 -758926632#3 -758926632#2 -758926632#1 -758926632#0 1200615233"/>
    </vehicle>


    <vehicle id="flow2.2" type="car" depart="72.00">
        <route edges="758926614#0 758926614#1 758926614#2 758926614#3 758926623#0 758926623#1 758926623#2 759179145#0 759179145#1 759179145#2 6310614#0 6310614#1 6310614#2 6310614#3 6310614#4 6310614#5 6310614#6 6310614#7 758926632#0 758926632#1 758926632#2 758926632#3 758926626"/>
    </vehicle>  



   <vehicle id="flow2.3" type="car" depart="108.00">
        <route edges="758926614#0 758926614#1 758926614#2 758926614#3 758926623#0 758926623#1 758926623#2 759179145#0 759179145#1 759179145#2 6310614#0 6310614#1 6310614#2 6310614#3 6310614#4 6310614#5 6310614#6 6310614#7 758926632#0 758926632#1 758926632#2 758926632#3 758926626"/>
    </vehicle>



    <vehicle id="flow2.5" type="car" depart="120.00">
        <route edges="98338697#0 49263618#1 758926623#0 758926623#1 758926623#2 6310625#0 6310625#1 758926622"/>
    </vehicle>

   

    <vehicle id="flow1.6" type="car" depart="216.00">
        <route edges="-355037966#4 -355037966#3 -355037966#2 -355037966#1 -355037966#0 -758926627#3 -758926627#2 -758926627#1 -758926627#0 758926632#0 758926632#1 758926632#2 758926632#3 758926626 758926625#0 758926625#1 758926625#2 758926625#3 -759179145#2 -759179145#1 -759179145#0 6310625#0 6310625#1 758926622"/>
    </vehicle>

    <vehicle id="flow1.9" type="car" depart="324.00">
        <route edges="-355037966#4 -355037966#3 -355037966#2 -355037966#1 -355037966#0 -758926627#3 -758926627#2 -758926627#1 -758926627#0 758926632#0 758926632#1 758926632#2 758926632#3 758926626 758926625#0 758926625#1 758926625#2 758926625#3 -759179145#2 -759179145#1 -759179145#0 6310625#0 6310625#1 758926622"/>
    </vehicle>

    <vehicle id="flow1.17" type="car" depart="612.00">
        <route edges="-355037966#4 -355037966#3 -355037966#2 -355037966#1 -355037966#0 -758926627#3 -758926627#2 -758926627#1 -758926627#0 758926632#0 758926632#1 758926632#2 758926632#3 758926626 758926625#0 758926625#1 758926625#2 758926625#3 -759179145#2 -759179145#1 -759179145#0 6310625#0 6310625#1 758926622"/>
    </vehicle>

    <vehicle id="flow1.24" type="car" depart="864.00">
        <route edges="-355037966#4 -355037966#3 -355037966#2 -355037966#1 -355037966#0 -758926627#3 -758926627#2 -758926627#1 -758926627#0 758926632#0 758926632#1 758926632#2 758926632#3 758926626 758926625#0 758926625#1 758926625#2 758926625#3 -759179145#2 -759179145#1 -759179145#0 6310625#0 6310625#1 758926622"/>
    </vehicle>
    <vehicle id="flow1.25" type="car" depart="900.00">
        <route edges="-355037966#4 -355037966#3 -355037966#2 -355037966#1 -355037966#0 -758926627#3 -758926627#2 -758926627#1 -758926627#0 758926632#0 758926632#1 758926632#2 758926632#3 758926626 758926625#0 758926625#1 758926625#2 758926625#3 -759179145#2 -759179145#1 -759179145#0 6310625#0 6310625#1 758926622"/>
    </vehicle>
    <vehicle id="flow1.26" type="car" depart="936.00">
        <route edges="-355037966#4 -355037966#3 -355037966#2 -355037966#1 -355037966#0 -758926627#3 -758926627#2 -758926627#1 -758926627#0 758926632#0 758926632#1 758926632#2 758926632#3 758926626 758926625#0 758926625#1 758926625#2 758926625#3 -759179145#2 -759179145#1 -759179145#0 6310625#0 6310625#1 758926622"/>
    </vehicle>

    <vehicle id="flow1.32" type="car" depart="1152.00">
        <route edges="-355037966#4 -355037966#3 -355037966#2 -355037966#1 -355037966#0 -758926627#3 -758926627#2 -758926627#1 -758926627#0 758926632#0 758926632#1 758926632#2 758926632#3 758926626 758926625#0 758926625#1 758926625#2 758926625#3 -759179145#2 -759179145#1 -759179145#0 6310625#0 6310625#1 758926622"/>
    </vehicle>

    <vehicle id="flow1.34" type="car" depart="1224.00">
        <route edges="-355037966#4 -355037966#3 -355037966#2 -355037966#1 -355037966#0 -758926627#3 -758926627#2 -758926627#1 -758926627#0 758926632#0 758926632#1 758926632#2 758926632#3 758926626 758926625#0 758926625#1 758926625#2 758926625#3 -759179145#2 -759179145#1 -759179145#0 6310625#0 6310625#1 758926622"/>
    </vehicle>

    <vehicle id="flow1.41" type="car" depart="1476.00">
        <route edges="-355037966#4 -355037966#3 -355037966#2 -355037966#1 -355037966#0 -758926627#3 -758926627#2 -758926627#1 -758926627#0 758926632#0 758926632#1 758926632#2 758926632#3 758926626 758926625#0 758926625#1 758926625#2 758926625#3 -759179145#2 -759179145#1 -759179145#0 6310625#0 6310625#1 758926622"/>
    </vehicle>

    <vehicle id="flow1.47" type="car" depart="1692.00">
        <route edges="-355037966#4 -355037966#3 -355037966#2 -355037966#1 -355037966#0 -758926627#3 -758926627#2 -758926627#1 -758926627#0 758926632#0 758926632#1 758926632#2 758926632#3 758926626 758926625#0 758926625#1 758926625#2 758926625#3 -759179145#2 -759179145#1 -759179145#0 6310625#0 6310625#1 758926622"/>
    </vehicle>

    <vehicle id="flow1.53" type="car" depart="1908.00">
        <route edges="-355037966#4 -355037966#3 -355037966#2 -355037966#1 -355037966#0 -758926627#3 -758926627#2 -758926627#1 -758926627#0 758926632#0 758926632#1 758926632#2 758926632#3 758926626 758926625#0 758926625#1 758926625#2 758926625#3 -759179145#2 -759179145#1 -759179145#0 6310625#0 6310625#1 758926622"/>
    </vehicle>
    <vehicle id="flow1.54" type="car" depart="1944.00">
        <route edges="-355037966#4 -355037966#3 -355037966#2 -355037966#1 -355037966#0 -758926627#3 -758926627#2 -758926627#1 -758926627#0 758926632#0 758926632#1 758926632#2 758926632#3 758926626 758926625#0 758926625#1 758926625#2 758926625#3 -759179145#2 -759179145#1 -759179145#0 6310625#0 6310625#1 758926622"/>
    </vehicle>

    <vehicle id="flow1.59" type="car" depart="2124.00">
        <route edges="-355037966#4 -355037966#3 -355037966#2 -355037966#1 -355037966#0 -758926627#3 -758926627#2 -758926627#1 -758926627#0 758926632#0 758926632#1 758926632#2 758926632#3 758926626 758926625#0 758926625#1 758926625#2 758926625#3 -759179145#2 -759179145#1 -759179145#0 6310625#0 6310625#1 758926622"/>
    </vehicle>

    <vehicle id="flow1.66" type="car" depart="2376.00">
        <route edges="-355037966#4 -355037966#3 -355037966#2 -355037966#1 -355037966#0 -758926627#3 -758926627#2 -758926627#1 -758926627#0 758926632#0 758926632#1 758926632#2 758926632#3 758926626 758926625#0 758926625#1 758926625#2 758926625#3 -759179145#2 -759179145#1 -759179145#0 6310625#0 6310625#1 758926622"/>
    </vehicle>

    <vehicle id="flow1.69" type="car" depart="2484.00">
        <route edges="-355037966#4 -355037966#3 -355037966#2 -355037966#1 -355037966#0 -758926627#3 -758926627#2 -758926627#1 -758926627#0 758926632#0 758926632#1 758926632#2 758926632#3 758926626 758926625#0 758926625#1 758926625#2 758926625#3 -759179145#2 -759179145#1 -759179145#0 6310625#0 6310625#1 758926622"/>
    </vehicle>

    <vehicle id="flow1.87" type="car" depart="3132.00">
        <route edges="-355037966#4 -355037966#3 -355037966#2 -355037966#1 -355037966#0 -758926627#3 -758926627#2 -758926627#1 -758926627#0 758926632#0 758926632#1 758926632#2 758926632#3 758926626 758926625#0 758926625#1 758926625#2 758926625#3 -759179145#2 -759179145#1 -759179145#0 6310625#0 6310625#1 758926622"/>
    </vehicle>

    <vehicle id="flow1.91" type="car" depart="3276.00">
        <route edges="-355037966#4 -355037966#3 -355037966#2 -355037966#1 -355037966#0 -758926627#3 -758926627#2 -758926627#1 -758926627#0 758926632#0 758926632#1 758926632#2 758926632#3 758926626 758926625#0 758926625#1 758926625#2 758926625#3 -759179145#2 -759179145#1 -759179145#0 6310625#0 6310625#1 758926622"/>
    </vehicle>

    <vehicle id="flow1.95" type="car" depart="3420.00">
        <route edges="-355037966#4 -355037966#3 -355037966#2 -355037966#1 -355037966#0 -758926627#3 -758926627#2 -758926627#1 -758926627#0 758926632#0 758926632#1 758926632#2 758926632#3 758926626 758926625#0 758926625#1 758926625#2 758926625#3 -759179145#2 -759179145#1 -759179145#0 6310625#0 6310625#1 758926622"/>
    </vehicle>

    <vehicle id="flow1.97" type="car" depart="3492.00">
        <route edges="-355037966#4 -355037966#3 -355037966#2 -355037966#1 -355037966#0 -758926627#3 -758926627#2 -758926627#1 -758926627#0 758926632#0 758926632#1 758926632#2 758926632#3 758926626 758926625#0 758926625#1 758926625#2 758926625#3 -759179145#2 -759179145#1 -759179145#0 6310625#0 6310625#1 758926622"/>
    </vehicle>

    
</routes>
