<?xml version='1.0' encoding='UTF-8'?>
<routes xmlns:xsi="http://www.w3.org/2001/XMLSchema-instance" xsi:noNamespaceSchemaLocation="http://sumo.dlr.de/xsd/routes_file.xsd">
    <vType id="car" length="5.00" maxSpeed="13.89" accel="2.6" decel="4.5" />

   <vType id="car_slow" length="5.00" maxSpeed="8.33" accel="1.5" decel="3.5" /><vType id="car_fast" length="5.00" maxSpeed="20.00" accel="3.0" decel="4.5" /><vType id="truck" length="10.00" maxSpeed="8.33" accel="1.0" decel="3.0" />

   <vType id="bus" length="12.00" maxSpeed="10.00" accel="1.2" decel="2.5" />

   <vType id="bicycle" length="2.00" maxSpeed="5.00" accel="0.8" decel="1.5" />

<vehicle id="flow2.0" type="car_slow" depart="47.00">
        <route edges="758926614#0 758926614#1 758926614#2 758926614#3 758926623#0 758926623#1 758926623#2 759179145#0 759179145#1 759179145#2 6310614#0 6310614#1 6310614#2 6310614#3 6310614#4 6310614#5 6310614#6 6310614#7 758926632#0 758926632#1 758926632#2 758926632#3 758926626" />
    <stop lane="758926632#3_0" startPos="0" endPos="80" duration="2260" parkingArea="parking1" /><stop lane="758926632#3_0" startPos="0" endPos="80" duration="1" parkingArea="parking2" /></vehicle>

 <vehicle id="flow4.1_bicycle" type="car" depart="148.96"><route edges="-758926622 460101507#0 460101507#1 758926625#0 758926625#1 758926625#2 758926625#3 6310614#0 6310614#1 6310614#2 6310614#3 6310614#4 6310614#5 6310614#6 6310614#7 758926627#0 758926627#1 758926627#2 758926627#3 -759179144#6 -759179144#5 -759179144#4 -759179144#3 -759179144#2 -759179144#1 -759179144#0 -360724307 -1198398084#2 -1198398084#1 -1198398084#0 67298560#0 -67298562#0 67209282#1 67209282#2 67209282#3 132346057#0 132346057#1 132346057#2 132346057#3 132346057#4 132346057#5" />
    </vehicle><vehicle id="flow2.5" type="car" depart="170.00">
        <route edges="98338697#0 49263618#1 758926623#0 758926623#1 758926623#2 6310625#0 6310625#1 758926622" />
    </vehicle>

   

    <vehicle id="flow3.0" type="car" depart="187.00">
        <route edges="-758926622 460101507#0 460101507#1 -758926626 -758926632#3 -758926632#2 -758926632#1 -758926632#0 1200615233" />
    </vehicle>


    <vehicle id="flow4.0" type="car_slow" depart="198.00">
        <route edges="-758926622 460101507#0 460101507#1 758926625#0 758926625#1 758926625#2 758926625#3 6310614#0 6310614#1 6310614#2 6310614#3 6310614#4 6310614#5 6310614#6 6310614#7 758926627#0 758926627#1 758926627#2 758926627#3 -759179144#6 -759179144#5 -759179144#4 -759179144#3 -759179144#2 -759179144#1 -759179144#0 -360724307 -1198398084#2 -1198398084#1 -1198398084#0 67298560#0 -67298562#0 67209282#1 67209282#2 67209282#3 132346057#0 132346057#1 132346057#2 132346057#3 132346057#4 132346057#5" />
    </vehicle>
    <vehicle id="flow2.2" type="car_slow" depart="258.00">
        <route edges="758926614#0 758926614#1 758926614#2 758926614#3 758926623#0 758926623#1 758926623#2 759179145#0 759179145#1 759179145#2 6310614#0 6310614#1 6310614#2 6310614#3 6310614#4 6310614#5 6310614#6 6310614#7 758926632#0 758926632#1 758926632#2 758926632#3 758926626" />
    <stop lane="758926632#3_0" startPos="0" endPos="80" duration="970" parkingArea="parking1" /><stop lane="758926632#3_0" startPos="0" endPos="80" duration="1" parkingArea="parking2" /></vehicle>  



   <vehicle id="flow5.6" type="car_slow" depart="259.00">
        <route edges="67209282#0 67209282#1 67209282#2 67209282#3 67209282#4 67209282#5 67209282#6 -1198398084#2 -1198398084#1 -1198398084#0 360777554 -118808606#6 -118808606#5 -118808606#4 -67504621" />
    </vehicle>

    <vehicle id="flow2.0_bicycle" type="car_fast" depart="313.33"><route edges="758926614#0 758926614#1 758926614#2 758926614#3 758926623#0 758926623#1 758926623#2 759179145#0 759179145#1 759179145#2 6310614#0 6310614#1 6310614#2 6310614#3 6310614#4 6310614#5 6310614#6 6310614#7 758926632#0 758926632#1 758926632#2 758926632#3 758926626" />
    </vehicle><vehicle id="flow1.9" type="car_slow" depart="332.00">
        <route edges="-355037966#4 -355037966#3 -355037966#2 -355037966#1 -355037966#0 -758926627#3 -758926627#2 -758926627#1 -758926627#0 758926632#0 758926632#1 758926632#2 758926632#3 758926626 758926625#0 758926625#1 758926625#2 758926625#3 -759179145#2 -759179145#1 -759179145#0 6310625#0 6310625#1 758926622" />
    <stop lane="758926632#3_0" startPos="0" endPos="80" duration="1548" parkingArea="parking1" /><stop lane="758926632#3_0" startPos="0" endPos="80" duration="1" parkingArea="parking2" /></vehicle>

    <vehicle id="flow4.1" type="car_fast" depart="341.00">
        <route edges="-758926622 460101507#0 460101507#1 758926625#0 758926625#1 758926625#2 758926625#3 6310614#0 6310614#1 6310614#2 6310614#3 6310614#4 6310614#5 6310614#6 6310614#7 758926627#0 758926627#1 758926627#2 758926627#3 -759179144#6 -759179144#5 -759179144#4 -759179144#3 -759179144#2 -759179144#1 -759179144#0 -360724307 -1198398084#2 -1198398084#1 -1198398084#0 67298560#0 -67298562#0 67209282#1 67209282#2 67209282#3 132346057#0 132346057#1 132346057#2 132346057#3 132346057#4 132346057#5" />
    </vehicle>

    <vehicle id="flow5.4" type="car" depart="387.00">
        <route edges="67209282#0 67209282#1 67209282#2 67209282#3 67209282#4 67209282#5 67209282#6 -1198398084#2 -1198398084#1 -1198398084#0 360777554 -118808606#6 -118808606#5 -118808606#4 -67504621" />
    </vehicle>
  
    <vehicle id="flow1.0_bicycle" type="car" depart="391.46"><route edges="-355037966#4 -355037966#3 -355037966#2 -355037966#1 -355037966#0 -758926627#3 -758926627#2 -758926627#1 -758926627#0 758926632#0 758926632#1 758926632#2 758926632#3 758926626 758926625#0 758926625#1 758926625#2 758926625#3 -759179145#2 -759179145#1 -759179145#0 6310625#0 6310625#1 758926622" />
    </vehicle><vehicle id="flow2.3" type="car" depart="408.00">
        <route edges="758926614#0 758926614#1 758926614#2 758926614#3 758926623#0 758926623#1 758926623#2 759179145#0 759179145#1 759179145#2 6310614#0 6310614#1 6310614#2 6310614#3 6310614#4 6310614#5 6310614#6 6310614#7 758926632#0 758926632#1 758926632#2 758926632#3 758926626" />
    <stop lane="758926632#3_0" startPos="0" endPos="80" duration="2356" parkingArea="parking1" /><stop lane="758926632#3_0" startPos="0" endPos="80" duration="1" parkingArea="parking2" /></vehicle>



    <vehicle id="flow5.0_bus" type="car" depart="421.52"><route edges="67209282#0 67209282#1 67209282#2 67209282#3 67209282#4 67209282#5 67209282#6 -1198398084#2 -1198398084#1 -1198398084#0 360777554 -118808606#6 -118808606#5 -118808606#4 -67504621" />
    </vehicle><vehicle id="flow5.1" type="car" depart="443.00">
        <route edges="67209282#0 67209282#1 67209282#2 67209282#3 67209282#4 67209282#5 67209282#6 -1198398084#2 -1198398084#1 -1198398084#0 360777554 -118808606#6 -118808606#5 -118808606#4 -67504621" />
    </vehicle>

    <vehicle id="flow5.0" type="car" depart="458.00">
        <route edges="67209282#0 67209282#1 67209282#2 67209282#3 67209282#4 67209282#5 67209282#6 -1198398084#2 -1198398084#1 -1198398084#0 360777554 -118808606#6 -118808606#5 -118808606#4 -67504621" />
    </vehicle>
    <vehicle id="flow1.0" type="car_fast" depart="485.00">
        <route edges="-355037966#4 -355037966#3 -355037966#2 -355037966#1 -355037966#0 -758926627#3 -758926627#2 -758926627#1 -758926627#0 758926632#0 758926632#1 758926632#2 758926632#3 758926626 758926625#0 758926625#1 758926625#2 758926625#3 -759179145#2 -759179145#1 -759179145#0 6310625#0 6310625#1 758926622" />
    <stop lane="758926632#3_0" startPos="0" endPos="80" duration="2948" parkingArea="parking1" /><stop lane="758926632#3_0" startPos="0" endPos="80" duration="1" parkingArea="parking2" /></vehicle>


    <vehicle id="flow2.2_bus" type="car" depart="487.84"><route edges="758926614#0 758926614#1 758926614#2 758926614#3 758926623#0 758926623#1 758926623#2 759179145#0 759179145#1 759179145#2 6310614#0 6310614#1 6310614#2 6310614#3 6310614#4 6310614#5 6310614#6 6310614#7 758926632#0 758926632#1 758926632#2 758926632#3 758926626" />
    </vehicle><vehicle id="flow5.1_truck" type="car_fast" depart="488.54"><route edges="67209282#0 67209282#1 67209282#2 67209282#3 67209282#4 67209282#5 67209282#6 -1198398084#2 -1198398084#1 -1198398084#0 360777554 -118808606#6 -118808606#5 -118808606#4 -67504621" />
    </vehicle><vehicle id="flow1.6" type="car_fast" depart="529.00">
        <route edges="-355037966#4 -355037966#3 -355037966#2 -355037966#1 -355037966#0 -758926627#3 -758926627#2 -758926627#1 -758926627#0 758926632#0 758926632#1 758926632#2 758926632#3 758926626 758926625#0 758926625#1 758926625#2 758926625#3 -759179145#2 -759179145#1 -759179145#0 6310625#0 6310625#1 758926622" />
    <stop lane="758926632#3_0" startPos="0" endPos="80" duration="2866" parkingArea="parking1" /><stop lane="758926632#3_0" startPos="0" endPos="80" duration="1" parkingArea="parking2" /></vehicle>

    <vehicle id="flow2.3_bicycle" type="car_fast" depart="553.84"><route edges="758926614#0 758926614#1 758926614#2 758926614#3 758926623#0 758926623#1 758926623#2 759179145#0 759179145#1 759179145#2 6310614#0 6310614#1 6310614#2 6310614#3 6310614#4 6310614#5 6310614#6 6310614#7 758926632#0 758926632#1 758926632#2 758926632#3 758926626" />
    </vehicle><vehicle id="flow2.5_truck" type="car_slow" depart="564.56"><route edges="98338697#0 49263618#1 758926623#0 758926623#1 758926623#2 6310625#0 6310625#1 758926622" />
    </vehicle><vehicle id="flow4.9" type="car" depart="582.00">
        <route edges="-758926622 460101507#0 460101507#1 758926625#0 758926625#1 758926625#2 758926625#3 6310614#0 6310614#1 6310614#2 6310614#3 6310614#4 6310614#5 6310614#6 6310614#7 758926627#0 758926627#1 758926627#2 758926627#3 -759179144#6 -759179144#5 -759179144#4 -759179144#3 -759179144#2 -759179144#1 -759179144#0 -360724307 -1198398084#2 -1198398084#1 -1198398084#0 67298560#0 -67298562#0 67209282#1 67209282#2 67209282#3 132346057#0 132346057#1 132346057#2 132346057#3 132346057#4 132346057#5" />
    </vehicle>

    <vehicle id="flow4.6" type="car_slow" depart="593.00">
        <route edges="-758926622 460101507#0 460101507#1 758926625#0 758926625#1 758926625#2 758926625#3 6310614#0 6310614#1 6310614#2 6310614#3 6310614#4 6310614#5 6310614#6 6310614#7 758926627#0 758926627#1 758926627#2 758926627#3 -759179144#6 -759179144#5 -759179144#4 -759179144#3 -759179144#2 -759179144#1 -759179144#0 -360724307 -1198398084#2 -1198398084#1 -1198398084#0 67298560#0 -67298562#0 67209282#1 67209282#2 67209282#3 132346057#0 132346057#1 132346057#2 132346057#3 132346057#4 132346057#5" />
    </vehicle>

    <vehicle id="flow5.9" type="car_fast" depart="595.00">
        <route edges="67209282#0 67209282#1 67209282#2 67209282#3 67209282#4 67209282#5 67209282#6 -1198398084#2 -1198398084#1 -1198398084#0 360777554 -118808606#6 -118808606#5 -118808606#4 -67504621" />
    </vehicle>

    <vehicle id="flow5.9_bus" type="car" depart="620.04"><route edges="67209282#0 67209282#1 67209282#2 67209282#3 67209282#4 67209282#5 67209282#6 -1198398084#2 -1198398084#1 -1198398084#0 360777554 -118808606#6 -118808606#5 -118808606#4 -67504621" />
    </vehicle><vehicle id="flow4.11" type="car_fast" depart="660.00">
        <route edges="-758926622 460101507#0 460101507#1 758926625#0 758926625#1 758926625#2 758926625#3 6310614#0 6310614#1 6310614#2 6310614#3 6310614#4 6310614#5 6310614#6 6310614#7 758926627#0 758926627#1 758926627#2 758926627#3 -759179144#6 -759179144#5 -759179144#4 -759179144#3 -759179144#2 -759179144#1 -759179144#0 -360724307 -1198398084#2 -1198398084#1 -1198398084#0 67298560#0 -67298562#0 67209282#1 67209282#2 67209282#3 132346057#0 132346057#1 132346057#2 132346057#3 132346057#4 132346057#5" />
    </vehicle>

    <vehicle id="flow5.4_bus" type="car_slow" depart="700.65"><route edges="67209282#0 67209282#1 67209282#2 67209282#3 67209282#4 67209282#5 67209282#6 -1198398084#2 -1198398084#1 -1198398084#0 360777554 -118808606#6 -118808606#5 -118808606#4 -67504621" />
    </vehicle><vehicle id="flow1.9_truck" type="car" depart="722.41"><route edges="-355037966#4 -355037966#3 -355037966#2 -355037966#1 -355037966#0 -758926627#3 -758926627#2 -758926627#1 -758926627#0 758926632#0 758926632#1 758926632#2 758926632#3 758926626 758926625#0 758926625#1 758926625#2 758926625#3 -759179145#2 -759179145#1 -759179145#0 6310625#0 6310625#1 758926622" />
    </vehicle><vehicle id="flow5.11" type="car_slow" depart="725.00">
        <route edges="67209282#0 67209282#1 67209282#2 67209282#3 67209282#4 67209282#5 67209282#6 -1198398084#2 -1198398084#1 -1198398084#0 360777554 -118808606#6 -118808606#5 -118808606#4 -67504621" />
    </vehicle>
    <vehicle id="flow5.19" type="car_slow" depart="740.00">
        <route edges="67209282#0 67209282#1 67209282#2 67209282#3 67209282#4 67209282#5 67209282#6 -1198398084#2 -1198398084#1 -1198398084#0 360777554 -118808606#6 -118808606#5 -118808606#4 -67504621" />
    </vehicle>

    <vehicle id="flow4.17" type="car_slow" depart="750.00">
        <route edges="-758926622 460101507#0 460101507#1 758926625#0 758926625#1 758926625#2 758926625#3 6310614#0 6310614#1 6310614#2 6310614#3 6310614#4 6310614#5 6310614#6 6310614#7 758926627#0 758926627#1 758926627#2 758926627#3 -759179144#6 -759179144#5 -759179144#4 -759179144#3 -759179144#2 -759179144#1 -759179144#0 -360724307 -1198398084#2 -1198398084#1 -1198398084#0 67298560#0 -67298562#0 67209282#1 67209282#2 67209282#3 132346057#0 132346057#1 132346057#2 132346057#3 132346057#4 132346057#5" />
    </vehicle>

    <vehicle id="flow4.0_truck" type="car" depart="758.42"><route edges="-758926622 460101507#0 460101507#1 758926625#0 758926625#1 758926625#2 758926625#3 6310614#0 6310614#1 6310614#2 6310614#3 6310614#4 6310614#5 6310614#6 6310614#7 758926627#0 758926627#1 758926627#2 758926627#3 -759179144#6 -759179144#5 -759179144#4 -759179144#3 -759179144#2 -759179144#1 -759179144#0 -360724307 -1198398084#2 -1198398084#1 -1198398084#0 67298560#0 -67298562#0 67209282#1 67209282#2 67209282#3 132346057#0 132346057#1 132346057#2 132346057#3 132346057#4 132346057#5" />
    </vehicle><vehicle id="flow3.0_bus" type="car" depart="789.84"><route edges="-758926622 460101507#0 460101507#1 -758926626 -758926632#3 -758926632#2 -758926632#1 -758926632#0 1200615233" />
    </vehicle><vehicle id="flow5.17" type="car_fast" depart="872.00">
        <route edges="67209282#0 67209282#1 67209282#2 67209282#3 67209282#4 67209282#5 67209282#6 -1198398084#2 -1198398084#1 -1198398084#0 360777554 -118808606#6 -118808606#5 -118808606#4 -67504621" />
    </vehicle>

    <vehicle id="flow4.19" type="car_fast" depart="892.00">
        <route edges="-758926622 460101507#0 460101507#1 758926625#0 758926625#1 758926625#2 758926625#3 6310614#0 6310614#1 6310614#2 6310614#3 6310614#4 6310614#5 6310614#6 6310614#7 758926627#0 758926627#1 758926627#2 758926627#3 -759179144#6 -759179144#5 -759179144#4 -759179144#3 -759179144#2 -759179144#1 -759179144#0 -360724307 -1198398084#2 -1198398084#1 -1198398084#0 67298560#0 -67298562#0 67209282#1 67209282#2 67209282#3 132346057#0 132346057#1 132346057#2 132346057#3 132346057#4 132346057#5" />
    </vehicle>

    <vehicle id="flow1.17" type="car" depart="905.00">
        <route edges="-355037966#4 -355037966#3 -355037966#2 -355037966#1 -355037966#0 -758926627#3 -758926627#2 -758926627#1 -758926627#0 758926632#0 758926632#1 758926632#2 758926632#3 758926626 758926625#0 758926625#1 758926625#2 758926625#3 -759179145#2 -759179145#1 -759179145#0 6310625#0 6310625#1 758926622" />
    <stop lane="758926632#3_0" startPos="0" endPos="80" duration="1647" parkingArea="parking1" /><stop lane="758926632#3_0" startPos="0" endPos="80" duration="1" parkingArea="parking2" /></vehicle>

    <vehicle id="flow1.25" type="car" depart="943.00">
        <route edges="-355037966#4 -355037966#3 -355037966#2 -355037966#1 -355037966#0 -758926627#3 -758926627#2 -758926627#1 -758926627#0 758926632#0 758926632#1 758926632#2 758926632#3 758926626 758926625#0 758926625#1 758926625#2 758926625#3 -759179145#2 -759179145#1 -759179145#0 6310625#0 6310625#1 758926622" />
    <stop lane="758926632#3_0" startPos="0" endPos="80" duration="1352" parkingArea="parking1" /><stop lane="758926632#3_0" startPos="0" endPos="80" duration="1" parkingArea="parking2" /></vehicle>
    <vehicle id="flow5.24" type="car_slow" depart="961.00">
        <route edges="67209282#0 67209282#1 67209282#2 67209282#3 67209282#4 67209282#5 67209282#6 -1198398084#2 -1198398084#1 -1198398084#0 360777554 -118808606#6 -118808606#5 -118808606#4 -67504621" />
    </vehicle>
    <vehicle id="flow4.26" type="car_slow" depart="968.00">
        <route edges="-758926622 460101507#0 460101507#1 758926625#0 758926625#1 758926625#2 758926625#3 6310614#0 6310614#1 6310614#2 6310614#3 6310614#4 6310614#5 6310614#6 6310614#7 758926627#0 758926627#1 758926627#2 758926627#3 -759179144#6 -759179144#5 -759179144#4 -759179144#3 -759179144#2 -759179144#1 -759179144#0 -360724307 -1198398084#2 -1198398084#1 -1198398084#0 67298560#0 -67298562#0 67209282#1 67209282#2 67209282#3 132346057#0 132346057#1 132346057#2 132346057#3 132346057#4 132346057#5" />
    </vehicle>

    <vehicle id="flow1.24" type="car" depart="1032.00">
        <route edges="-355037966#4 -355037966#3 -355037966#2 -355037966#1 -355037966#0 -758926627#3 -758926627#2 -758926627#1 -758926627#0 758926632#0 758926632#1 758926632#2 758926632#3 758926626 758926625#0 758926625#1 758926625#2 758926625#3 -759179145#2 -759179145#1 -759179145#0 6310625#0 6310625#1 758926622" />
    <stop lane="758926632#3_0" startPos="0" endPos="80" duration="3393" parkingArea="parking1" /><stop lane="758926632#3_0" startPos="0" endPos="80" duration="1" parkingArea="parking2" /></vehicle>
    <vehicle id="flow5.23" type="car" depart="1040.00">
        <route edges="67209282#0 67209282#1 67209282#2 67209282#3 67209282#4 67209282#5 67209282#6 -1198398084#2 -1198398084#1 -1198398084#0 360777554 -118808606#6 -118808606#5 -118808606#4 -67504621" />
    </vehicle>
    <vehicle id="flow4.6_truck" type="car" depart="1040.96"><route edges="-758926622 460101507#0 460101507#1 758926625#0 758926625#1 758926625#2 758926625#3 6310614#0 6310614#1 6310614#2 6310614#3 6310614#4 6310614#5 6310614#6 6310614#7 758926627#0 758926627#1 758926627#2 758926627#3 -759179144#6 -759179144#5 -759179144#4 -759179144#3 -759179144#2 -759179144#1 -759179144#0 -360724307 -1198398084#2 -1198398084#1 -1198398084#0 67298560#0 -67298562#0 67209282#1 67209282#2 67209282#3 132346057#0 132346057#1 132346057#2 132346057#3 132346057#4 132346057#5" />
    </vehicle><vehicle id="flow5.26" type="car_slow" depart="1046.00">
        <route edges="67209282#0 67209282#1 67209282#2 67209282#3 67209282#4 67209282#5 67209282#6 -1198398084#2 -1198398084#1 -1198398084#0 360777554 -118808606#6 -118808606#5 -118808606#4 -67504621" />
    </vehicle>

    <vehicle id="flow4.23" type="car" depart="1118.00">
        <route edges="-758926622 460101507#0 460101507#1 758926625#0 758926625#1 758926625#2 758926625#3 6310614#0 6310614#1 6310614#2 6310614#3 6310614#4 6310614#5 6310614#6 6310614#7 758926627#0 758926627#1 758926627#2 758926627#3 -759179144#6 -759179144#5 -759179144#4 -759179144#3 -759179144#2 -759179144#1 -759179144#0 -360724307 -1198398084#2 -1198398084#1 -1198398084#0 67298560#0 -67298562#0 67209282#1 67209282#2 67209282#3 132346057#0 132346057#1 132346057#2 132346057#3 132346057#4 132346057#5" />
    </vehicle>
    <vehicle id="flow5.25" type="car_slow" depart="1200.00">
        <route edges="67209282#0 67209282#1 67209282#2 67209282#3 67209282#4 67209282#5 67209282#6 -1198398084#2 -1198398084#1 -1198398084#0 360777554 -118808606#6 -118808606#5 -118808606#4 -67504621" />
    </vehicle>
    <vehicle id="flow5.34" type="car" depart="1227.00">
        <route edges="67209282#0 67209282#1 67209282#2 67209282#3 67209282#4 67209282#5 67209282#6 -1198398084#2 -1198398084#1 -1198398084#0 360777554 -118808606#6 -118808606#5 -118808606#4 -67504621" />
    </vehicle>

    <vehicle id="flow4.25" type="car_slow" depart="1240.00">
        <route edges="-758926622 460101507#0 460101507#1 758926625#0 758926625#1 758926625#2 758926625#3 6310614#0 6310614#1 6310614#2 6310614#3 6310614#4 6310614#5 6310614#6 6310614#7 758926627#0 758926627#1 758926627#2 758926627#3 -759179144#6 -759179144#5 -759179144#4 -759179144#3 -759179144#2 -759179144#1 -759179144#0 -360724307 -1198398084#2 -1198398084#1 -1198398084#0 67298560#0 -67298562#0 67209282#1 67209282#2 67209282#3 132346057#0 132346057#1 132346057#2 132346057#3 132346057#4 132346057#5" />
    </vehicle>
    <vehicle id="flow4.9_bus" type="car_slow" depart="1279.44"><route edges="-758926622 460101507#0 460101507#1 758926625#0 758926625#1 758926625#2 758926625#3 6310614#0 6310614#1 6310614#2 6310614#3 6310614#4 6310614#5 6310614#6 6310614#7 758926627#0 758926627#1 758926627#2 758926627#3 -759179144#6 -759179144#5 -759179144#4 -759179144#3 -759179144#2 -759179144#1 -759179144#0 -360724307 -1198398084#2 -1198398084#1 -1198398084#0 67298560#0 -67298562#0 67209282#1 67209282#2 67209282#3 132346057#0 132346057#1 132346057#2 132346057#3 132346057#4 132346057#5" />
    </vehicle><vehicle id="flow4.24" type="car" depart="1290.00">
        <route edges="-758926622 460101507#0 460101507#1 758926625#0 758926625#1 758926625#2 758926625#3 6310614#0 6310614#1 6310614#2 6310614#3 6310614#4 6310614#5 6310614#6 6310614#7 758926627#0 758926627#1 758926627#2 758926627#3 -759179144#6 -759179144#5 -759179144#4 -759179144#3 -759179144#2 -759179144#1 -759179144#0 -360724307 -1198398084#2 -1198398084#1 -1198398084#0 67298560#0 -67298562#0 67209282#1 67209282#2 67209282#3 132346057#0 132346057#1 132346057#2 132346057#3 132346057#4 132346057#5" />
    </vehicle>
    <vehicle id="flow4.34" type="car" depart="1334.00">
        <route edges="-758926622 460101507#0 460101507#1 758926625#0 758926625#1 758926625#2 758926625#3 6310614#0 6310614#1 6310614#2 6310614#3 6310614#4 6310614#5 6310614#6 6310614#7 758926627#0 758926627#1 758926627#2 758926627#3 -759179144#6 -759179144#5 -759179144#4 -759179144#3 -759179144#2 -759179144#1 -759179144#0 -360724307 -1198398084#2 -1198398084#1 -1198398084#0 67298560#0 -67298562#0 67209282#1 67209282#2 67209282#3 132346057#0 132346057#1 132346057#2 132346057#3 132346057#4 132346057#5" />
    </vehicle>

    <vehicle id="flow4.32" type="car_slow" depart="1338.00">
        <route edges="-758926622 460101507#0 460101507#1 758926625#0 758926625#1 758926625#2 758926625#3 6310614#0 6310614#1 6310614#2 6310614#3 6310614#4 6310614#5 6310614#6 6310614#7 758926627#0 758926627#1 758926627#2 758926627#3 -759179144#6 -759179144#5 -759179144#4 -759179144#3 -759179144#2 -759179144#1 -759179144#0 -360724307 -1198398084#2 -1198398084#1 -1198398084#0 67298560#0 -67298562#0 67209282#1 67209282#2 67209282#3 132346057#0 132346057#1 132346057#2 132346057#3 132346057#4 132346057#5" />
    </vehicle>

    <vehicle id="flow1.26" type="car" depart="1390.00">
        <route edges="-355037966#4 -355037966#3 -355037966#2 -355037966#1 -355037966#0 -758926627#3 -758926627#2 -758926627#1 -758926627#0 758926632#0 758926632#1 758926632#2 758926632#3 758926626 758926625#0 758926625#1 758926625#2 758926625#3 -759179145#2 -759179145#1 -759179145#0 6310625#0 6310625#1 758926622" />
    <stop lane="758926632#3_0" startPos="0" endPos="80" duration="692" parkingArea="parking1" /><stop lane="758926632#3_0" startPos="0" endPos="80" duration="1" parkingArea="parking2" /></vehicle>

    <vehicle id="flow4.19_truck" type="car_slow" depart="1396.42"><route edges="-758926622 460101507#0 460101507#1 758926625#0 758926625#1 758926625#2 758926625#3 6310614#0 6310614#1 6310614#2 6310614#3 6310614#4 6310614#5 6310614#6 6310614#7 758926627#0 758926627#1 758926627#2 758926627#3 -759179144#6 -759179144#5 -759179144#4 -759179144#3 -759179144#2 -759179144#1 -759179144#0 -360724307 -1198398084#2 -1198398084#1 -1198398084#0 67298560#0 -67298562#0 67209282#1 67209282#2 67209282#3 132346057#0 132346057#1 132346057#2 132346057#3 132346057#4 132346057#5" />
    </vehicle><vehicle id="flow1.32" type="car" depart="1400.00">
        <route edges="-355037966#4 -355037966#3 -355037966#2 -355037966#1 -355037966#0 -758926627#3 -758926627#2 -758926627#1 -758926627#0 758926632#0 758926632#1 758926632#2 758926632#3 758926626 758926625#0 758926625#1 758926625#2 758926625#3 -759179145#2 -759179145#1 -759179145#0 6310625#0 6310625#1 758926622" />
    <stop lane="758926632#3_0" startPos="0" endPos="80" duration="1581" parkingArea="parking1" /><stop lane="758926632#3_0" startPos="0" endPos="80" duration="1" parkingArea="parking2" /></vehicle>

    <vehicle id="flow5.32" type="car" depart="1440.00">
        <route edges="67209282#0 67209282#1 67209282#2 67209282#3 67209282#4 67209282#5 67209282#6 -1198398084#2 -1198398084#1 -1198398084#0 360777554 -118808606#6 -118808606#5 -118808606#4 -67504621" />
    </vehicle>

    <vehicle id="flow4.36" type="car" depart="1453.00">
        <route edges="-758926622 460101507#0 460101507#1 758926625#0 758926625#1 758926625#2 758926625#3 6310614#0 6310614#1 6310614#2 6310614#3 6310614#4 6310614#5 6310614#6 6310614#7 758926627#0 758926627#1 758926627#2 758926627#3 -759179144#6 -759179144#5 -759179144#4 -759179144#3 -759179144#2 -759179144#1 -759179144#0 -360724307 -1198398084#2 -1198398084#1 -1198398084#0 67298560#0 -67298562#0 67209282#1 67209282#2 67209282#3 132346057#0 132346057#1 132346057#2 132346057#3 132346057#4 132346057#5" />
    </vehicle>

    <vehicle id="flow5.17_truck" type="car" depart="1472.65"><route edges="67209282#0 67209282#1 67209282#2 67209282#3 67209282#4 67209282#5 67209282#6 -1198398084#2 -1198398084#1 -1198398084#0 360777554 -118808606#6 -118808606#5 -118808606#4 -67504621" />
    </vehicle><vehicle id="flow5.19_truck" type="car_fast" depart="1555.22"><route edges="67209282#0 67209282#1 67209282#2 67209282#3 67209282#4 67209282#5 67209282#6 -1198398084#2 -1198398084#1 -1198398084#0 360777554 -118808606#6 -118808606#5 -118808606#4 -67504621" />
    </vehicle><vehicle id="flow4.41" type="car" depart="1603.00">
        <route edges="-758926622 460101507#0 460101507#1 758926625#0 758926625#1 758926625#2 758926625#3 6310614#0 6310614#1 6310614#2 6310614#3 6310614#4 6310614#5 6310614#6 6310614#7 758926627#0 758926627#1 758926627#2 758926627#3 -759179144#6 -759179144#5 -759179144#4 -759179144#3 -759179144#2 -759179144#1 -759179144#0 -360724307 -1198398084#2 -1198398084#1 -1198398084#0 67298560#0 -67298562#0 67209282#1 67209282#2 67209282#3 132346057#0 132346057#1 132346057#2 132346057#3 132346057#4 132346057#5" />
    </vehicle>

    <vehicle id="flow1.34" type="car" depart="1605.00">
        <route edges="-355037966#4 -355037966#3 -355037966#2 -355037966#1 -355037966#0 -758926627#3 -758926627#2 -758926627#1 -758926627#0 758926632#0 758926632#1 758926632#2 758926632#3 758926626 758926625#0 758926625#1 758926625#2 758926625#3 -759179145#2 -759179145#1 -759179145#0 6310625#0 6310625#1 758926622" />
    <stop lane="758926632#3_0" startPos="0" endPos="80" duration="977" parkingArea="parking1" /><stop lane="758926632#3_0" startPos="0" endPos="80" duration="1" parkingArea="parking2" /></vehicle>

    <vehicle id="flow1.41" type="car_slow" depart="1611.00">
        <route edges="-355037966#4 -355037966#3 -355037966#2 -355037966#1 -355037966#0 -758926627#3 -758926627#2 -758926627#1 -758926627#0 758926632#0 758926632#1 758926632#2 758926632#3 758926626 758926625#0 758926625#1 758926625#2 758926625#3 -759179145#2 -759179145#1 -759179145#0 6310625#0 6310625#1 758926622" />
    <stop lane="758926632#3_0" startPos="0" endPos="80" duration="2775" parkingArea="parking1" /><stop lane="758926632#3_0" startPos="0" endPos="80" duration="1" parkingArea="parking2" /></vehicle>

    <vehicle id="flow5.36" type="car" depart="1658.00">
        <route edges="67209282#0 67209282#1 67209282#2 67209282#3 67209282#4 67209282#5 67209282#6 -1198398084#2 -1198398084#1 -1198398084#0 360777554 -118808606#6 -118808606#5 -118808606#4 -67504621" />
    </vehicle>

    <vehicle id="flow1.47" type="car" depart="1807.00">
        <route edges="-355037966#4 -355037966#3 -355037966#2 -355037966#1 -355037966#0 -758926627#3 -758926627#2 -758926627#1 -758926627#0 758926632#0 758926632#1 758926632#2 758926632#3 758926626 758926625#0 758926625#1 758926625#2 758926625#3 -759179145#2 -759179145#1 -759179145#0 6310625#0 6310625#1 758926622" />
    <stop lane="758926632#3_0" startPos="0" endPos="80" duration="838" parkingArea="parking1" /><stop lane="758926632#3_0" startPos="0" endPos="80" duration="1" parkingArea="parking2" /></vehicle>

    <vehicle id="flow5.41" type="car_fast" depart="1848.00">
        <route edges="67209282#0 67209282#1 67209282#2 67209282#3 67209282#4 67209282#5 67209282#6 -1198398084#2 -1198398084#1 -1198398084#0 360777554 -118808606#6 -118808606#5 -118808606#4 -67504621" />
    </vehicle>

    <vehicle id="flow4.52" type="car" depart="1907.00">
        <route edges="-758926622 460101507#0 460101507#1 758926625#0 758926625#1 758926625#2 758926625#3 6310614#0 6310614#1 6310614#2 6310614#3 6310614#4 6310614#5 6310614#6 6310614#7 758926627#0 758926627#1 758926627#2 758926627#3 -759179144#6 -759179144#5 -759179144#4 -759179144#3 -759179144#2 -759179144#1 -759179144#0 -360724307 -1198398084#2 -1198398084#1 -1198398084#0 67298560#0 -67298562#0 67209282#1 67209282#2 67209282#3 132346057#0 132346057#1 132346057#2 132346057#3 132346057#4 132346057#5" />
    </vehicle>
    <vehicle id="flow5.49" type="car" depart="1926.00">
        <route edges="67209282#0 67209282#1 67209282#2 67209282#3 67209282#4 67209282#5 67209282#6 -1198398084#2 -1198398084#1 -1198398084#0 360777554 -118808606#6 -118808606#5 -118808606#4 -67504621" />
    </vehicle>
    <vehicle id="flow5.47" type="car" depart="1932.00">
        <route edges="67209282#0 67209282#1 67209282#2 67209282#3 67209282#4 67209282#5 67209282#6 -1198398084#2 -1198398084#1 -1198398084#0 360777554 -118808606#6 -118808606#5 -118808606#4 -67504621" />
    </vehicle>

    <vehicle id="flow1.54" type="car_slow" depart="1946.00">