<routes>
    <!-- Vehicle Types -->
    <vType id="car" accel="2.6" decel="4.5" length="5" maxSpeed="13.89" />
    <vType id="truck" accel="1.0" decel="3.0" length="10" maxSpeed="8.33" />
    <vType id="bus" accel="1.2" decel="3.0" length="12" maxSpeed="12.5" />

    <!-- Routes -->
    <route id="route1" edges="-758926622 132346057#5" />
  

    <!-- Vehicle Flows -->
    <flow id="flow1" type="car" begin="0" end="3600" number="100" route="route1" />
</routes>