<?xml version="1.0" encoding="UTF-8"?>

<!-- generated on 2024-11-13 01:07:47 by Eclipse SUMO duarouter Version 1.21.0
<duarouterConfiguration xmlns:xsi="http://www.w3.org/2001/XMLSchema-instance" xsi:noNamespaceSchemaLocation="http://sumo.dlr.de/xsd/duarouterConfiguration.xsd">

    <input>
        <net-file value="Map_Smartseille.net.xml"/>
        <route-files value="flows.rou.xml"/>
    </input>

    <output>
        <output-file value="flows1.rou.xml"/>
    </output>

</duarouterConfiguration>
-->

<routes xmlns:xsi="http://www.w3.org/2001/XMLSchema-instance" xsi:noNamespaceSchemaLocation="http://sumo.dlr.de/xsd/routes_file.xsd">
    <vType id="car" length="5.00" maxSpeed="13.89" accel="2.6" decel="4.5"/>
    <vehicle id="flow1.0" type="car" depart="0.00">
        <route edges="-758926622 460101507#0 460101507#1 758926625#0 758926625#1 758926625#2 758926625#3 6310614#0 6310614#1 6310614#2 6310614#3 6310614#4 6310614#5 6310614#6 6310614#7 758926627#0 758926627#1 758926627#2 758926627#3 -759179144#6 -759179144#5 -759179144#4 -759179144#3 -759179144#2 -759179144#1 -759179144#0 -360724307 -1198398084#2 -1198398084#1 -1198398084#0 67298560#0 -67298562#0 67209282#1 67209282#2 67209282#3 132346057#0 132346057#1 132346057#2 132346057#3 132346057#4 132346057#5"/>
    </vehicle>
    <vehicle id="flow1.1" type="car" depart="36.00">
        <route edges="-758926622 460101507#0 460101507#1 758926625#0 758926625#1 758926625#2 758926625#3 6310614#0 6310614#1 6310614#2 6310614#3 6310614#4 6310614#5 6310614#6 6310614#7 758926627#0 758926627#1 758926627#2 758926627#3 -759179144#6 -759179144#5 -759179144#4 -759179144#3 -759179144#2 -759179144#1 -759179144#0 -360724307 -1198398084#2 -1198398084#1 -1198398084#0 67298560#0 -67298562#0 67209282#1 67209282#2 67209282#3 132346057#0 132346057#1 132346057#2 132346057#3 132346057#4 132346057#5"/>
    </vehicle>

    <vehicle id="flow1.6" type="car" depart="216.00">
        <route edges="-758926622 460101507#0 460101507#1 758926625#0 758926625#1 758926625#2 758926625#3 6310614#0 6310614#1 6310614#2 6310614#3 6310614#4 6310614#5 6310614#6 6310614#7 758926627#0 758926627#1 758926627#2 758926627#3 -759179144#6 -759179144#5 -759179144#4 -759179144#3 -759179144#2 -759179144#1 -759179144#0 -360724307 -1198398084#2 -1198398084#1 -1198398084#0 67298560#0 -67298562#0 67209282#1 67209282#2 67209282#3 132346057#0 132346057#1 132346057#2 132346057#3 132346057#4 132346057#5"/>
    </vehicle>

    <vehicle id="flow1.9" type="car" depart="324.00">
        <route edges="-758926622 460101507#0 460101507#1 758926625#0 758926625#1 758926625#2 758926625#3 6310614#0 6310614#1 6310614#2 6310614#3 6310614#4 6310614#5 6310614#6 6310614#7 758926627#0 758926627#1 758926627#2 758926627#3 -759179144#6 -759179144#5 -759179144#4 -759179144#3 -759179144#2 -759179144#1 -759179144#0 -360724307 -1198398084#2 -1198398084#1 -1198398084#0 67298560#0 -67298562#0 67209282#1 67209282#2 67209282#3 132346057#0 132346057#1 132346057#2 132346057#3 132346057#4 132346057#5"/>
    </vehicle>

    <vehicle id="flow1.11" type="car" depart="396.00">
        <route edges="-758926622 460101507#0 460101507#1 758926625#0 758926625#1 758926625#2 758926625#3 6310614#0 6310614#1 6310614#2 6310614#3 6310614#4 6310614#5 6310614#6 6310614#7 758926627#0 758926627#1 758926627#2 758926627#3 -759179144#6 -759179144#5 -759179144#4 -759179144#3 -759179144#2 -759179144#1 -759179144#0 -360724307 -1198398084#2 -1198398084#1 -1198398084#0 67298560#0 -67298562#0 67209282#1 67209282#2 67209282#3 132346057#0 132346057#1 132346057#2 132346057#3 132346057#4 132346057#5"/>
    </vehicle>

    <vehicle id="flow1.17" type="car" depart="612.00">
        <route edges="-758926622 460101507#0 460101507#1 758926625#0 758926625#1 758926625#2 758926625#3 6310614#0 6310614#1 6310614#2 6310614#3 6310614#4 6310614#5 6310614#6 6310614#7 758926627#0 758926627#1 758926627#2 758926627#3 -759179144#6 -759179144#5 -759179144#4 -759179144#3 -759179144#2 -759179144#1 -759179144#0 -360724307 -1198398084#2 -1198398084#1 -1198398084#0 67298560#0 -67298562#0 67209282#1 67209282#2 67209282#3 132346057#0 132346057#1 132346057#2 132346057#3 132346057#4 132346057#5"/>
    </vehicle>

    <vehicle id="flow1.19" type="car" depart="684.00">
        <route edges="-758926622 460101507#0 460101507#1 758926625#0 758926625#1 758926625#2 758926625#3 6310614#0 6310614#1 6310614#2 6310614#3 6310614#4 6310614#5 6310614#6 6310614#7 758926627#0 758926627#1 758926627#2 758926627#3 -759179144#6 -759179144#5 -759179144#4 -759179144#3 -759179144#2 -759179144#1 -759179144#0 -360724307 -1198398084#2 -1198398084#1 -1198398084#0 67298560#0 -67298562#0 67209282#1 67209282#2 67209282#3 132346057#0 132346057#1 132346057#2 132346057#3 132346057#4 132346057#5"/>
    </vehicle>

    <vehicle id="flow1.23" type="car" depart="828.00">
        <route edges="-758926622 460101507#0 460101507#1 758926625#0 758926625#1 758926625#2 758926625#3 6310614#0 6310614#1 6310614#2 6310614#3 6310614#4 6310614#5 6310614#6 6310614#7 758926627#0 758926627#1 758926627#2 758926627#3 -759179144#6 -759179144#5 -759179144#4 -759179144#3 -759179144#2 -759179144#1 -759179144#0 -360724307 -1198398084#2 -1198398084#1 -1198398084#0 67298560#0 -67298562#0 67209282#1 67209282#2 67209282#3 132346057#0 132346057#1 132346057#2 132346057#3 132346057#4 132346057#5"/>
    </vehicle>
    <vehicle id="flow1.24" type="car" depart="864.00">
        <route edges="-758926622 460101507#0 460101507#1 758926625#0 758926625#1 758926625#2 758926625#3 6310614#0 6310614#1 6310614#2 6310614#3 6310614#4 6310614#5 6310614#6 6310614#7 758926627#0 758926627#1 758926627#2 758926627#3 -759179144#6 -759179144#5 -759179144#4 -759179144#3 -759179144#2 -759179144#1 -759179144#0 -360724307 -1198398084#2 -1198398084#1 -1198398084#0 67298560#0 -67298562#0 67209282#1 67209282#2 67209282#3 132346057#0 132346057#1 132346057#2 132346057#3 132346057#4 132346057#5"/>
    </vehicle>
    <vehicle id="flow1.25" type="car" depart="900.00">
        <route edges="-758926622 460101507#0 460101507#1 758926625#0 758926625#1 758926625#2 758926625#3 6310614#0 6310614#1 6310614#2 6310614#3 6310614#4 6310614#5 6310614#6 6310614#7 758926627#0 758926627#1 758926627#2 758926627#3 -759179144#6 -759179144#5 -759179144#4 -759179144#3 -759179144#2 -759179144#1 -759179144#0 -360724307 -1198398084#2 -1198398084#1 -1198398084#0 67298560#0 -67298562#0 67209282#1 67209282#2 67209282#3 132346057#0 132346057#1 132346057#2 132346057#3 132346057#4 132346057#5"/>
    </vehicle>
    <vehicle id="flow1.26" type="car" depart="936.00">
        <route edges="-758926622 460101507#0 460101507#1 758926625#0 758926625#1 758926625#2 758926625#3 6310614#0 6310614#1 6310614#2 6310614#3 6310614#4 6310614#5 6310614#6 6310614#7 758926627#0 758926627#1 758926627#2 758926627#3 -759179144#6 -759179144#5 -759179144#4 -759179144#3 -759179144#2 -759179144#1 -759179144#0 -360724307 -1198398084#2 -1198398084#1 -1198398084#0 67298560#0 -67298562#0 67209282#1 67209282#2 67209282#3 132346057#0 132346057#1 132346057#2 132346057#3 132346057#4 132346057#5"/>
    </vehicle>

    <vehicle id="flow1.32" type="car" depart="1152.00">
        <route edges="-758926622 460101507#0 460101507#1 758926625#0 758926625#1 758926625#2 758926625#3 6310614#0 6310614#1 6310614#2 6310614#3 6310614#4 6310614#5 6310614#6 6310614#7 758926627#0 758926627#1 758926627#2 758926627#3 -759179144#6 -759179144#5 -759179144#4 -759179144#3 -759179144#2 -759179144#1 -759179144#0 -360724307 -1198398084#2 -1198398084#1 -1198398084#0 67298560#0 -67298562#0 67209282#1 67209282#2 67209282#3 132346057#0 132346057#1 132346057#2 132346057#3 132346057#4 132346057#5"/>
    </vehicle>

    <vehicle id="flow1.34" type="car" depart="1224.00">
        <route edges="-758926622 460101507#0 460101507#1 758926625#0 758926625#1 758926625#2 758926625#3 6310614#0 6310614#1 6310614#2 6310614#3 6310614#4 6310614#5 6310614#6 6310614#7 758926627#0 758926627#1 758926627#2 758926627#3 -759179144#6 -759179144#5 -759179144#4 -759179144#3 -759179144#2 -759179144#1 -759179144#0 -360724307 -1198398084#2 -1198398084#1 -1198398084#0 67298560#0 -67298562#0 67209282#1 67209282#2 67209282#3 132346057#0 132346057#1 132346057#2 132346057#3 132346057#4 132346057#5"/>
    </vehicle>

    <vehicle id="flow1.36" type="car" depart="1296.00">
        <route edges="-758926622 460101507#0 460101507#1 758926625#0 758926625#1 758926625#2 758926625#3 6310614#0 6310614#1 6310614#2 6310614#3 6310614#4 6310614#5 6310614#6 6310614#7 758926627#0 758926627#1 758926627#2 758926627#3 -759179144#6 -759179144#5 -759179144#4 -759179144#3 -759179144#2 -759179144#1 -759179144#0 -360724307 -1198398084#2 -1198398084#1 -1198398084#0 67298560#0 -67298562#0 67209282#1 67209282#2 67209282#3 132346057#0 132346057#1 132346057#2 132346057#3 132346057#4 132346057#5"/>
    </vehicle>

    <vehicle id="flow1.41" type="car" depart="1476.00">
        <route edges="-758926622 460101507#0 460101507#1 758926625#0 758926625#1 758926625#2 758926625#3 6310614#0 6310614#1 6310614#2 6310614#3 6310614#4 6310614#5 6310614#6 6310614#7 758926627#0 758926627#1 758926627#2 758926627#3 -759179144#6 -759179144#5 -759179144#4 -759179144#3 -759179144#2 -759179144#1 -759179144#0 -360724307 -1198398084#2 -1198398084#1 -1198398084#0 67298560#0 -67298562#0 67209282#1 67209282#2 67209282#3 132346057#0 132346057#1 132346057#2 132346057#3 132346057#4 132346057#5"/>
    </vehicle>

    <vehicle id="flow1.47" type="car" depart="1692.00">
        <route edges="-758926622 460101507#0 460101507#1 758926625#0 758926625#1 758926625#2 758926625#3 6310614#0 6310614#1 6310614#2 6310614#3 6310614#4 6310614#5 6310614#6 6310614#7 758926627#0 758926627#1 758926627#2 758926627#3 -759179144#6 -759179144#5 -759179144#4 -759179144#3 -759179144#2 -759179144#1 -759179144#0 -360724307 -1198398084#2 -1198398084#1 -1198398084#0 67298560#0 -67298562#0 67209282#1 67209282#2 67209282#3 132346057#0 132346057#1 132346057#2 132346057#3 132346057#4 132346057#5"/>
    </vehicle>

    <vehicle id="flow1.49" type="car" depart="1764.00">
        <route edges="-758926622 460101507#0 460101507#1 758926625#0 758926625#1 758926625#2 758926625#3 6310614#0 6310614#1 6310614#2 6310614#3 6310614#4 6310614#5 6310614#6 6310614#7 758926627#0 758926627#1 758926627#2 758926627#3 -759179144#6 -759179144#5 -759179144#4 -759179144#3 -759179144#2 -759179144#1 -759179144#0 -360724307 -1198398084#2 -1198398084#1 -1198398084#0 67298560#0 -67298562#0 67209282#1 67209282#2 67209282#3 132346057#0 132346057#1 132346057#2 132346057#3 132346057#4 132346057#5"/>
    </vehicle>
    <vehicle id="flow1.50" type="car" depart="1800.00">
        <route edges="-758926622 460101507#0 460101507#1 758926625#0 758926625#1 758926625#2 758926625#3 6310614#0 6310614#1 6310614#2 6310614#3 6310614#4 6310614#5 6310614#6 6310614#7 758926627#0 758926627#1 758926627#2 758926627#3 -759179144#6 -759179144#5 -759179144#4 -759179144#3 -759179144#2 -759179144#1 -759179144#0 -360724307 -1198398084#2 -1198398084#1 -1198398084#0 67298560#0 -67298562#0 67209282#1 67209282#2 67209282#3 132346057#0 132346057#1 132346057#2 132346057#3 132346057#4 132346057#5"/>
    </vehicle>

    <vehicle id="flow1.52" type="car" depart="1872.00">
        <route edges="-758926622 460101507#0 460101507#1 758926625#0 758926625#1 758926625#2 758926625#3 6310614#0 6310614#1 6310614#2 6310614#3 6310614#4 6310614#5 6310614#6 6310614#7 758926627#0 758926627#1 758926627#2 758926627#3 -759179144#6 -759179144#5 -759179144#4 -759179144#3 -759179144#2 -759179144#1 -759179144#0 -360724307 -1198398084#2 -1198398084#1 -1198398084#0 67298560#0 -67298562#0 67209282#1 67209282#2 67209282#3 132346057#0 132346057#1 132346057#2 132346057#3 132346057#4 132346057#5"/>
    </vehicle>
    <vehicle id="flow1.53" type="car" depart="1908.00">
        <route edges="-758926622 460101507#0 460101507#1 758926625#0 758926625#1 758926625#2 758926625#3 6310614#0 6310614#1 6310614#2 6310614#3 6310614#4 6310614#5 6310614#6 6310614#7 758926627#0 758926627#1 758926627#2 758926627#3 -759179144#6 -759179144#5 -759179144#4 -759179144#3 -759179144#2 -759179144#1 -759179144#0 -360724307 -1198398084#2 -1198398084#1 -1198398084#0 67298560#0 -67298562#0 67209282#1 67209282#2 67209282#3 132346057#0 132346057#1 132346057#2 132346057#3 132346057#4 132346057#5"/>
    </vehicle>
    <vehicle id="flow1.54" type="car" depart="1944.00">
        <route edges="-758926622 460101507#0 460101507#1 758926625#0 758926625#1 758926625#2 758926625#3 6310614#0 6310614#1 6310614#2 6310614#3 6310614#4 6310614#5 6310614#6 6310614#7 758926627#0 758926627#1 758926627#2 758926627#3 -759179144#6 -759179144#5 -759179144#4 -759179144#3 -759179144#2 -759179144#1 -759179144#0 -360724307 -1198398084#2 -1198398084#1 -1198398084#0 67298560#0 -67298562#0 67209282#1 67209282#2 67209282#3 132346057#0 132346057#1 132346057#2 132346057#3 132346057#4 132346057#5"/>
    </vehicle>

    <vehicle id="flow1.59" type="car" depart="2124.00">
        <route edges="-758926622 460101507#0 460101507#1 758926625#0 758926625#1 758926625#2 758926625#3 6310614#0 6310614#1 6310614#2 6310614#3 6310614#4 6310614#5 6310614#6 6310614#7 758926627#0 758926627#1 758926627#2 758926627#3 -759179144#6 -759179144#5 -759179144#4 -759179144#3 -759179144#2 -759179144#1 -759179144#0 -360724307 -1198398084#2 -1198398084#1 -1198398084#0 67298560#0 -67298562#0 67209282#1 67209282#2 67209282#3 132346057#0 132346057#1 132346057#2 132346057#3 132346057#4 132346057#5"/>
    </vehicle>

    <vehicle id="flow1.61" type="car" depart="2196.00">
        <route edges="-758926622 460101507#0 460101507#1 758926625#0 758926625#1 758926625#2 758926625#3 6310614#0 6310614#1 6310614#2 6310614#3 6310614#4 6310614#5 6310614#6 6310614#7 758926627#0 758926627#1 758926627#2 758926627#3 -759179144#6 -759179144#5 -759179144#4 -759179144#3 -759179144#2 -759179144#1 -759179144#0 -360724307 -1198398084#2 -1198398084#1 -1198398084#0 67298560#0 -67298562#0 67209282#1 67209282#2 67209282#3 132346057#0 132346057#1 132346057#2 132346057#3 132346057#4 132346057#5"/>
    </vehicle>

    <vehicle id="flow1.66" type="car" depart="2376.00">
        <route edges="-758926622 460101507#0 460101507#1 758926625#0 758926625#1 758926625#2 758926625#3 6310614#0 6310614#1 6310614#2 6310614#3 6310614#4 6310614#5 6310614#6 6310614#7 758926627#0 758926627#1 758926627#2 758926627#3 -759179144#6 -759179144#5 -759179144#4 -759179144#3 -759179144#2 -759179144#1 -759179144#0 -360724307 -1198398084#2 -1198398084#1 -1198398084#0 67298560#0 -67298562#0 67209282#1 67209282#2 67209282#3 132346057#0 132346057#1 132346057#2 132346057#3 132346057#4 132346057#5"/>
    </vehicle>

    <vehicle id="flow1.69" type="car" depart="2484.00">
        <route edges="-758926622 460101507#0 460101507#1 758926625#0 758926625#1 758926625#2 758926625#3 6310614#0 6310614#1 6310614#2 6310614#3 6310614#4 6310614#5 6310614#6 6310614#7 758926627#0 758926627#1 758926627#2 758926627#3 -759179144#6 -759179144#5 -759179144#4 -759179144#3 -759179144#2 -759179144#1 -759179144#0 -360724307 -1198398084#2 -1198398084#1 -1198398084#0 67298560#0 -67298562#0 67209282#1 67209282#2 67209282#3 132346057#0 132346057#1 132346057#2 132346057#3 132346057#4 132346057#5"/>
    </vehicle>

    <vehicle id="flow1.78" type="car" depart="2808.00">
        <route edges="-758926622 460101507#0 460101507#1 758926625#0 758926625#1 758926625#2 758926625#3 6310614#0 6310614#1 6310614#2 6310614#3 6310614#4 6310614#5 6310614#6 6310614#7 758926627#0 758926627#1 758926627#2 758926627#3 -759179144#6 -759179144#5 -759179144#4 -759179144#3 -759179144#2 -759179144#1 -759179144#0 -360724307 -1198398084#2 -1198398084#1 -1198398084#0 67298560#0 -67298562#0 67209282#1 67209282#2 67209282#3 132346057#0 132346057#1 132346057#2 132346057#3 132346057#4 132346057#5"/>
    </vehicle>

    <vehicle id="flow1.82" type="car" depart="2952.00">
        <route edges="-758926622 460101507#0 460101507#1 758926625#0 758926625#1 758926625#2 758926625#3 6310614#0 6310614#1 6310614#2 6310614#3 6310614#4 6310614#5 6310614#6 6310614#7 758926627#0 758926627#1 758926627#2 758926627#3 -759179144#6 -759179144#5 -759179144#4 -759179144#3 -759179144#2 -759179144#1 -759179144#0 -360724307 -1198398084#2 -1198398084#1 -1198398084#0 67298560#0 -67298562#0 67209282#1 67209282#2 67209282#3 132346057#0 132346057#1 132346057#2 132346057#3 132346057#4 132346057#5"/>
    </vehicle>

    <vehicle id="flow1.84" type="car" depart="3024.00">
        <route edges="-758926622 460101507#0 460101507#1 758926625#0 758926625#1 758926625#2 758926625#3 6310614#0 6310614#1 6310614#2 6310614#3 6310614#4 6310614#5 6310614#6 6310614#7 758926627#0 758926627#1 758926627#2 758926627#3 -759179144#6 -759179144#5 -759179144#4 -759179144#3 -759179144#2 -759179144#1 -759179144#0 -360724307 -1198398084#2 -1198398084#1 -1198398084#0 67298560#0 -67298562#0 67209282#1 67209282#2 67209282#3 132346057#0 132346057#1 132346057#2 132346057#3 132346057#4 132346057#5"/>
    </vehicle>

    <vehicle id="flow1.87" type="car" depart="3132.00">
        <route edges="-758926622 460101507#0 460101507#1 758926625#0 758926625#1 758926625#2 758926625#3 6310614#0 6310614#1 6310614#2 6310614#3 6310614#4 6310614#5 6310614#6 6310614#7 758926627#0 758926627#1 758926627#2 758926627#3 -759179144#6 -759179144#5 -759179144#4 -759179144#3 -759179144#2 -759179144#1 -759179144#0 -360724307 -1198398084#2 -1198398084#1 -1198398084#0 67298560#0 -67298562#0 67209282#1 67209282#2 67209282#3 132346057#0 132346057#1 132346057#2 132346057#3 132346057#4 132346057#5"/>
    </vehicle>

    <vehicle id="flow1.91" type="car" depart="3276.00">
        <route edges="-758926622 460101507#0 460101507#1 758926625#0 758926625#1 758926625#2 758926625#3 6310614#0 6310614#1 6310614#2 6310614#3 6310614#4 6310614#5 6310614#6 6310614#7 758926627#0 758926627#1 758926627#2 758926627#3 -759179144#6 -759179144#5 -759179144#4 -759179144#3 -759179144#2 -759179144#1 -759179144#0 -360724307 -1198398084#2 -1198398084#1 -1198398084#0 67298560#0 -67298562#0 67209282#1 67209282#2 67209282#3 132346057#0 132346057#1 132346057#2 132346057#3 132346057#4 132346057#5"/>
    </vehicle>

    <vehicle id="flow1.95" type="car" depart="3420.00">
        <route edges="-758926622 460101507#0 460101507#1 758926625#0 758926625#1 758926625#2 758926625#3 6310614#0 6310614#1 6310614#2 6310614#3 6310614#4 6310614#5 6310614#6 6310614#7 758926627#0 758926627#1 758926627#2 758926627#3 -759179144#6 -759179144#5 -759179144#4 -759179144#3 -759179144#2 -759179144#1 -759179144#0 -360724307 -1198398084#2 -1198398084#1 -1198398084#0 67298560#0 -67298562#0 67209282#1 67209282#2 67209282#3 132346057#0 132346057#1 132346057#2 132346057#3 132346057#4 132346057#5"/>
    </vehicle>
    <vehicle id="flow1.96" type="car" depart="3456.00">
        <route edges="-758926622 460101507#0 460101507#1 758926625#0 758926625#1 758926625#2 758926625#3 6310614#0 6310614#1 6310614#2 6310614#3 6310614#4 6310614#5 6310614#6 6310614#7 758926627#0 758926627#1 758926627#2 758926627#3 -759179144#6 -759179144#5 -759179144#4 -759179144#3 -759179144#2 -759179144#1 -759179144#0 -360724307 -1198398084#2 -1198398084#1 -1198398084#0 67298560#0 -67298562#0 67209282#1 67209282#2 67209282#3 132346057#0 132346057#1 132346057#2 132346057#3 132346057#4 132346057#5"/>
    </vehicle>
    <vehicle id="flow1.97" type="car" depart="3492.00">
        <route edges="-758926622 460101507#0 460101507#1 758926625#0 758926625#1 758926625#2 758926625#3 6310614#0 6310614#1 6310614#2 6310614#3 6310614#4 6310614#5 6310614#6 6310614#7 758926627#0 758926627#1 758926627#2 758926627#3 -759179144#6 -759179144#5 -759179144#4 -759179144#3 -759179144#2 -759179144#1 -759179144#0 -360724307 -1198398084#2 -1198398084#1 -1198398084#0 67298560#0 -67298562#0 67209282#1 67209282#2 67209282#3 132346057#0 132346057#1 132346057#2 132346057#3 132346057#4 132346057#5"/>
    </vehicle>

</routes>
