<?xml version='1.0' encoding='UTF-8'?>
<routes xmlns:xsi="http://www.w3.org/2001/XMLSchema-instance" xsi:noNamespaceSchemaLocation="http://sumo.dlr.de/xsd/routes_file.xsd">
    <vType id="car" length="5.00" maxSpeed="13.89" accel="2.6" decel="4.5" />


<vType id="truck" length="10.00" maxSpeed="8.33" accel="1.0" decel="3.0" />
    <vehicle id="flow5.0" type="car" depart="0.00">
        <route edges="67209282#0 67209282#1 67209282#2 67209282#3 67209282#4 67209282#5 67209282#6 -1198398084#2 -1198398084#1 -1198398084#0 360777554 -118808606#6 -118808606#5 -118808606#4 -67504621" />
    </vehicle>
    <vehicle id="flow4.0" type="car" depart="0.00">
        <route edges="-758926622 460101507#0 460101507#1 758926625#0 758926625#1 758926625#2 758926625#3 6310614#0 6310614#1 6310614#2 6310614#3 6310614#4 6310614#5 6310614#6 6310614#7 758926627#0 758926627#1 758926627#2 758926627#3 -759179144#6 -759179144#5 -759179144#4 -759179144#3 -759179144#2 -759179144#1 -759179144#0 -360724307 -1198398084#2 -1198398084#1 -1198398084#0 67298560#0 -67298562#0 67209282#1 67209282#2 67209282#3 132346057#0 132346057#1 132346057#2 132346057#3 132346057#4 132346057#5" />
    </vehicle>
    <vehicle id="flow2.0" type="car" depart="0.00">
        <route edges="758926614#0 758926614#1 758926614#2 758926614#3 758926623#0 758926623#1 758926623#2 759179145#0 759179145#1 759179145#2 6310614#0 6310614#1 6310614#2 6310614#3 6310614#4 6310614#5 6310614#6 6310614#7 758926632#0 758926632#1 758926632#2 758926632#3 758926626" />
    </vehicle>

 <vehicle id="flow1.0" type="car" depart="0.00">
        <route edges="-355037966#4 -355037966#3 -355037966#2 -355037966#1 -355037966#0 -758926627#3 -758926627#2 -758926627#1 -758926627#0 758926632#0 758926632#1 758926632#2 758926632#3 758926626 758926625#0 758926625#1 758926625#2 758926625#3 -759179145#2 -759179145#1 -759179145#0 6310625#0 6310625#1 758926622" />
    </vehicle>


    <vehicle id="flow3.0" type="truck" depart="0.00">
        <route edges="-758926622 460101507#0 460101507#1 -758926626 -758926632#3 -758926632#2 -758926632#1 -758926632#0 1200615233" />
    </vehicle>


    <vehicle id="flow5.1" type="car" depart="36.00">
        <route edges="67209282#0 67209282#1 67209282#2 67209282#3 67209282#4 67209282#5 67209282#6 -1198398084#2 -1198398084#1 -1198398084#0 360777554 -118808606#6 -118808606#5 -118808606#4 -67504621" />
    </vehicle>

    <vehicle id="flow4.1" type="car" depart="36.00">
        <route edges="-758926622 460101507#0 460101507#1 758926625#0 758926625#1 758926625#2 758926625#3 6310614#0 6310614#1 6310614#2 6310614#3 6310614#4 6310614#5 6310614#6 6310614#7 758926627#0 758926627#1 758926627#2 758926627#3 -759179144#6 -759179144#5 -759179144#4 -759179144#3 -759179144#2 -759179144#1 -759179144#0 -360724307 -1198398084#2 -1198398084#1 -1198398084#0 67298560#0 -67298562#0 67209282#1 67209282#2 67209282#3 132346057#0 132346057#1 132346057#2 132346057#3 132346057#4 132346057#5" />
    </vehicle>

    <vehicle id="flow2.2" type="car" depart="72.00">
        <route edges="758926614#0 758926614#1 758926614#2 758926614#3 758926623#0 758926623#1 758926623#2 759179145#0 759179145#1 759179145#2 6310614#0 6310614#1 6310614#2 6310614#3 6310614#4 6310614#5 6310614#6 6310614#7 758926632#0 758926632#1 758926632#2 758926632#3 758926626" />
    </vehicle>  



   <vehicle id="flow2.3" type="car" depart="108.00">
        <route edges="758926614#0 758926614#1 758926614#2 758926614#3 758926623#0 758926623#1 758926623#2 759179145#0 759179145#1 759179145#2 6310614#0 6310614#1 6310614#2 6310614#3 6310614#4 6310614#5 6310614#6 6310614#7 758926632#0 758926632#1 758926632#2 758926632#3 758926626" />
    </vehicle>



    <vehicle id="flow2.5" type="car" depart="120.00">
        <route edges="98338697#0 49263618#1 758926623#0 758926623#1 758926623#2 6310625#0 6310625#1 758926622" />
    </vehicle>

   

    <vehicle id="flow5.4" type="car" depart="144.00">
        <route edges="67209282#0 67209282#1 67209282#2 67209282#3 67209282#4 67209282#5 67209282#6 -1198398084#2 -1198398084#1 -1198398084#0 360777554 -118808606#6 -118808606#5 -118808606#4 -67504621" />
    </vehicle>
  
    <vehicle id="flow5.6" type="car" depart="216.00">
        <route edges="67209282#0 67209282#1 67209282#2 67209282#3 67209282#4 67209282#5 67209282#6 -1198398084#2 -1198398084#1 -1198398084#0 360777554 -118808606#6 -118808606#5 -118808606#4 -67504621" />
    </vehicle>

    <vehicle id="flow4.6" type="car" depart="216.00">
        <route edges="-758926622 460101507#0 460101507#1 758926625#0 758926625#1 758926625#2 758926625#3 6310614#0 6310614#1 6310614#2 6310614#3 6310614#4 6310614#5 6310614#6 6310614#7 758926627#0 758926627#1 758926627#2 758926627#3 -759179144#6 -759179144#5 -759179144#4 -759179144#3 -759179144#2 -759179144#1 -759179144#0 -360724307 -1198398084#2 -1198398084#1 -1198398084#0 67298560#0 -67298562#0 67209282#1 67209282#2 67209282#3 132346057#0 132346057#1 132346057#2 132346057#3 132346057#4 132346057#5" />
    </vehicle>

    <vehicle id="flow1.6" type="car" depart="216.00">
        <route edges="-355037966#4 -355037966#3 -355037966#2 -355037966#1 -355037966#0 -758926627#3 -758926627#2 -758926627#1 -758926627#0 758926632#0 758926632#1 758926632#2 758926632#3 758926626 758926625#0 758926625#1 758926625#2 758926625#3 -759179145#2 -759179145#1 -759179145#0 6310625#0 6310625#1 758926622" />
    </vehicle>

    <vehicle id="flow5.9" type="car" depart="324.00">
        <route edges="67209282#0 67209282#1 67209282#2 67209282#3 67209282#4 67209282#5 67209282#6 -1198398084#2 -1198398084#1 -1198398084#0 360777554 -118808606#6 -118808606#5 -118808606#4 -67504621" />
    </vehicle>

    <vehicle id="flow4.9" type="car" depart="324.00">
        <route edges="-758926622 460101507#0 460101507#1 758926625#0 758926625#1 758926625#2 758926625#3 6310614#0 6310614#1 6310614#2 6310614#3 6310614#4 6310614#5 6310614#6 6310614#7 758926627#0 758926627#1 758926627#2 758926627#3 -759179144#6 -759179144#5 -759179144#4 -759179144#3 -759179144#2 -759179144#1 -759179144#0 -360724307 -1198398084#2 -1198398084#1 -1198398084#0 67298560#0 -67298562#0 67209282#1 67209282#2 67209282#3 132346057#0 132346057#1 132346057#2 132346057#3 132346057#4 132346057#5" />
    </vehicle>

    <vehicle id="flow1.9" type="car" depart="324.00">
        <route edges="-355037966#4 -355037966#3 -355037966#2 -355037966#1 -355037966#0 -758926627#3 -758926627#2 -758926627#1 -758926627#0 758926632#0 758926632#1 758926632#2 758926632#3 758926626 758926625#0 758926625#1 758926625#2 758926625#3 -759179145#2 -759179145#1 -759179145#0 6310625#0 6310625#1 758926622" />
    </vehicle>

    <vehicle id="flow5.11" type="car" depart="396.00">
        <route edges="67209282#0 67209282#1 67209282#2 67209282#3 67209282#4 67209282#5 67209282#6 -1198398084#2 -1198398084#1 -1198398084#0 360777554 -118808606#6 -118808606#5 -118808606#4 -67504621" />
    </vehicle>
    <vehicle id="flow4.11" type="car" depart="396.00">
        <route edges="-758926622 460101507#0 460101507#1 758926625#0 758926625#1 758926625#2 758926625#3 6310614#0 6310614#1 6310614#2 6310614#3 6310614#4 6310614#5 6310614#6 6310614#7 758926627#0 758926627#1 758926627#2 758926627#3 -759179144#6 -759179144#5 -759179144#4 -759179144#3 -759179144#2 -759179144#1 -759179144#0 -360724307 -1198398084#2 -1198398084#1 -1198398084#0 67298560#0 -67298562#0 67209282#1 67209282#2 67209282#3 132346057#0 132346057#1 132346057#2 132346057#3 132346057#4 132346057#5" />
    </vehicle>

    <vehicle id="flow5.17" type="car" depart="612.00">
        <route edges="67209282#0 67209282#1 67209282#2 67209282#3 67209282#4 67209282#5 67209282#6 -1198398084#2 -1198398084#1 -1198398084#0 360777554 -118808606#6 -118808606#5 -118808606#4 -67504621" />
    </vehicle>

    <vehicle id="flow4.17" type="car" depart="612.00">
        <route edges="-758926622 460101507#0 460101507#1 758926625#0 758926625#1 758926625#2 758926625#3 6310614#0 6310614#1 6310614#2 6310614#3 6310614#4 6310614#5 6310614#6 6310614#7 758926627#0 758926627#1 758926627#2 758926627#3 -759179144#6 -759179144#5 -759179144#4 -759179144#3 -759179144#2 -759179144#1 -759179144#0 -360724307 -1198398084#2 -1198398084#1 -1198398084#0 67298560#0 -67298562#0 67209282#1 67209282#2 67209282#3 132346057#0 132346057#1 132346057#2 132346057#3 132346057#4 132346057#5" />
    </vehicle>

    <vehicle id="flow1.17" type="car" depart="612.00">
        <route edges="-355037966#4 -355037966#3 -355037966#2 -355037966#1 -355037966#0 -758926627#3 -758926627#2 -758926627#1 -758926627#0 758926632#0 758926632#1 758926632#2 758926632#3 758926626 758926625#0 758926625#1 758926625#2 758926625#3 -759179145#2 -759179145#1 -759179145#0 6310625#0 6310625#1 758926622" />
    </vehicle>

    <vehicle id="flow5.19" type="car" depart="684.00">
        <route edges="67209282#0 67209282#1 67209282#2 67209282#3 67209282#4 67209282#5 67209282#6 -1198398084#2 -1198398084#1 -1198398084#0 360777554 -118808606#6 -118808606#5 -118808606#4 -67504621" />
    </vehicle>

    <vehicle id="flow4.19" type="car" depart="684.00">
        <route edges="-758926622 460101507#0 460101507#1 758926625#0 758926625#1 758926625#2 758926625#3 6310614#0 6310614#1 6310614#2 6310614#3 6310614#4 6310614#5 6310614#6 6310614#7 758926627#0 758926627#1 758926627#2 758926627#3 -759179144#6 -759179144#5 -759179144#4 -759179144#3 -759179144#2 -759179144#1 -759179144#0 -360724307 -1198398084#2 -1198398084#1 -1198398084#0 67298560#0 -67298562#0 67209282#1 67209282#2 67209282#3 132346057#0 132346057#1 132346057#2 132346057#3 132346057#4 132346057#5" />
    </vehicle>

    <vehicle id="flow5.23" type="car" depart="828.00">
        <route edges="67209282#0 67209282#1 67209282#2 67209282#3 67209282#4 67209282#5 67209282#6 -1198398084#2 -1198398084#1 -1198398084#0 360777554 -118808606#6 -118808606#5 -118808606#4 -67504621" />
    </vehicle>
    <vehicle id="flow4.23" type="car" depart="828.00">
        <route edges="-758926622 460101507#0 460101507#1 758926625#0 758926625#1 758926625#2 758926625#3 6310614#0 6310614#1 6310614#2 6310614#3 6310614#4 6310614#5 6310614#6 6310614#7 758926627#0 758926627#1 758926627#2 758926627#3 -759179144#6 -759179144#5 -759179144#4 -759179144#3 -759179144#2 -759179144#1 -759179144#0 -360724307 -1198398084#2 -1198398084#1 -1198398084#0 67298560#0 -67298562#0 67209282#1 67209282#2 67209282#3 132346057#0 132346057#1 132346057#2 132346057#3 132346057#4 132346057#5" />
    </vehicle>
    <vehicle id="flow5.24" type="car" depart="864.00">
        <route edges="67209282#0 67209282#1 67209282#2 67209282#3 67209282#4 67209282#5 67209282#6 -1198398084#2 -1198398084#1 -1198398084#0 360777554 -118808606#6 -118808606#5 -118808606#4 -67504621" />
    </vehicle>
    <vehicle id="flow4.24" type="car" depart="864.00">
        <route edges="-758926622 460101507#0 460101507#1 758926625#0 758926625#1 758926625#2 758926625#3 6310614#0 6310614#1 6310614#2 6310614#3 6310614#4 6310614#5 6310614#6 6310614#7 758926627#0 758926627#1 758926627#2 758926627#3 -759179144#6 -759179144#5 -759179144#4 -759179144#3 -759179144#2 -759179144#1 -759179144#0 -360724307 -1198398084#2 -1198398084#1 -1198398084#0 67298560#0 -67298562#0 67209282#1 67209282#2 67209282#3 132346057#0 132346057#1 132346057#2 132346057#3 132346057#4 132346057#5" />
    </vehicle>
    <vehicle id="flow1.24" type="car" depart="864.00">
        <route edges="-355037966#4 -355037966#3 -355037966#2 -355037966#1 -355037966#0 -758926627#3 -758926627#2 -758926627#1 -758926627#0 758926632#0 758926632#1 758926632#2 758926632#3 758926626 758926625#0 758926625#1 758926625#2 758926625#3 -759179145#2 -759179145#1 -759179145#0 6310625#0 6310625#1 758926622" />
    </vehicle>
    <vehicle id="flow5.25" type="car" depart="900.00">
        <route edges="67209282#0 67209282#1 67209282#2 67209282#3 67209282#4 67209282#5 67209282#6 -1198398084#2 -1198398084#1 -1198398084#0 360777554 -118808606#6 -118808606#5 -118808606#4 -67504621" />
    </vehicle>
    <vehicle id="flow4.25" type="car" depart="900.00">
        <route edges="-758926622 460101507#0 460101507#1 758926625#0 758926625#1 758926625#2 758926625#3 6310614#0 6310614#1 6310614#2 6310614#3 6310614#4 6310614#5 6310614#6 6310614#7 758926627#0 758926627#1 758926627#2 758926627#3 -759179144#6 -759179144#5 -759179144#4 -759179144#3 -759179144#2 -759179144#1 -759179144#0 -360724307 -1198398084#2 -1198398084#1 -1198398084#0 67298560#0 -67298562#0 67209282#1 67209282#2 67209282#3 132346057#0 132346057#1 132346057#2 132346057#3 132346057#4 132346057#5" />
    </vehicle>
    <vehicle id="flow1.25" type="car" depart="900.00">
        <route edges="-355037966#4 -355037966#3 -355037966#2 -355037966#1 -355037966#0 -758926627#3 -758926627#2 -758926627#1 -758926627#0 758926632#0 758926632#1 758926632#2 758926632#3 758926626 758926625#0 758926625#1 758926625#2 758926625#3 -759179145#2 -759179145#1 -759179145#0 6310625#0 6310625#1 758926622" />
    </vehicle>
    <vehicle id="flow5.26" type="car" depart="936.00">
        <route edges="67209282#0 67209282#1 67209282#2 67209282#3 67209282#4 67209282#5 67209282#6 -1198398084#2 -1198398084#1 -1198398084#0 360777554 -118808606#6 -118808606#5 -118808606#4 -67504621" />
    </vehicle>

    <vehicle id="flow4.26" type="car" depart="936.00">
        <route edges="-758926622 460101507#0 460101507#1 758926625#0 758926625#1 758926625#2 758926625#3 6310614#0 6310614#1 6310614#2 6310614#3 6310614#4 6310614#5 6310614#6 6310614#7 758926627#0 758926627#1 758926627#2 758926627#3 -759179144#6 -759179144#5 -759179144#4 -759179144#3 -759179144#2 -759179144#1 -759179144#0 -360724307 -1198398084#2 -1198398084#1 -1198398084#0 67298560#0 -67298562#0 67209282#1 67209282#2 67209282#3 132346057#0 132346057#1 132346057#2 132346057#3 132346057#4 132346057#5" />
    </vehicle>

    <vehicle id="flow1.26" type="car" depart="936.00">
        <route edges="-355037966#4 -355037966#3 -355037966#2 -355037966#1 -355037966#0 -758926627#3 -758926627#2 -758926627#1 -758926627#0 758926632#0 758926632#1 758926632#2 758926632#3 758926626 758926625#0 758926625#1 758926625#2 758926625#3 -759179145#2 -759179145#1 -759179145#0 6310625#0 6310625#1 758926622" />
    </vehicle>

    <vehicle id="flow5.32" type="car" depart="1152.00">
        <route edges="67209282#0 67209282#1 67209282#2 67209282#3 67209282#4 67209282#5 67209282#6 -1198398084#2 -1198398084#1 -1198398084#0 360777554 -118808606#6 -118808606#5 -118808606#4 -67504621" />
    </vehicle>

    <vehicle id="flow4.32" type="car" depart="1152.00">
        <route edges="-758926622 460101507#0 460101507#1 758926625#0 758926625#1 758926625#2 758926625#3 6310614#0 6310614#1 6310614#2 6310614#3 6310614#4 6310614#5 6310614#6 6310614#7 758926627#0 758926627#1 758926627#2 758926627#3 -759179144#6 -759179144#5 -759179144#4 -759179144#3 -759179144#2 -759179144#1 -759179144#0 -360724307 -1198398084#2 -1198398084#1 -1198398084#0 67298560#0 -67298562#0 67209282#1 67209282#2 67209282#3 132346057#0 132346057#1 132346057#2 132346057#3 132346057#4 132346057#5" />
    </vehicle>

    <vehicle id="flow1.32" type="car" depart="1152.00">
        <route edges="-355037966#4 -355037966#3 -355037966#2 -355037966#1 -355037966#0 -758926627#3 -758926627#2 -758926627#1 -758926627#0 758926632#0 758926632#1 758926632#2 758926632#3 758926626 758926625#0 758926625#1 758926625#2 758926625#3 -759179145#2 -759179145#1 -759179145#0 6310625#0 6310625#1 758926622" />
    </vehicle>

    <vehicle id="flow5.34" type="car" depart="1224.00">
        <route edges="67209282#0 67209282#1 67209282#2 67209282#3 67209282#4 67209282#5 67209282#6 -1198398084#2 -1198398084#1 -1198398084#0 360777554 -118808606#6 -118808606#5 -118808606#4 -67504621" />
    </vehicle>

    <vehicle id="flow4.34" type="car" depart="1224.00">
        <route edges="-758926622 460101507#0 460101507#1 758926625#0 758926625#1 758926625#2 758926625#3 6310614#0 6310614#1 6310614#2 6310614#3 6310614#4 6310614#5 6310614#6 6310614#7 758926627#0 758926627#1 758926627#2 758926627#3 -759179144#6 -759179144#5 -759179144#4 -759179144#3 -759179144#2 -759179144#1 -759179144#0 -360724307 -1198398084#2 -1198398084#1 -1198398084#0 67298560#0 -67298562#0 67209282#1 67209282#2 67209282#3 132346057#0 132346057#1 132346057#2 132346057#3 132346057#4 132346057#5" />
    </vehicle>

    <vehicle id="flow1.34" type="car" depart="1224.00">
        <route edges="-355037966#4 -355037966#3 -355037966#2 -355037966#1 -355037966#0 -758926627#3 -758926627#2 -758926627#1 -758926627#0 758926632#0 758926632#1 758926632#2 758926632#3 758926626 758926625#0 758926625#1 758926625#2 758926625#3 -759179145#2 -759179145#1 -759179145#0 6310625#0 6310625#1 758926622" />
    </vehicle>

    <vehicle id="flow5.36" type="car" depart="1296.00">
        <route edges="67209282#0 67209282#1 67209282#2 67209282#3 67209282#4 67209282#5 67209282#6 -1198398084#2 -1198398084#1 -1198398084#0 360777554 -118808606#6 -118808606#5 -118808606#4 -67504621" />
    </vehicle>

    <vehicle id="flow4.36" type="car" depart="1296.00">
        <route edges="-758926622 460101507#0 460101507#1 758926625#0 758926625#1 758926625#2 758926625#3 6310614#0 6310614#1 6310614#2 6310614#3 6310614#4 6310614#5 6310614#6 6310614#7 758926627#0 758926627#1 758926627#2 758926627#3 -759179144#6 -759179144#5 -759179144#4 -759179144#3 -759179144#2 -759179144#1 -759179144#0 -360724307 -1198398084#2 -1198398084#1 -1198398084#0 67298560#0 -67298562#0 67209282#1 67209282#2 67209282#3 132346057#0 132346057#1 132346057#2 132346057#3 132346057#4 132346057#5" />
    </vehicle>

    <vehicle id="flow5.41" type="car" depart="1476.00">
        <route edges="67209282#0 67209282#1 67209282#2 67209282#3 67209282#4 67209282#5 67209282#6 -1198398084#2 -1198398084#1 -1198398084#0 360777554 -118808606#6 -118808606#5 -118808606#4 -67504621" />
    </vehicle>

    <vehicle id="flow4.41" type="car" depart="1476.00">
        <route edges="-758926622 460101507#0 460101507#1 758926625#0 758926625#1 758926625#2 758926625#3 6310614#0 6310614#1 6310614#2 6310614#3 6310614#4 6310614#5 6310614#6 6310614#7 758926627#0 758926627#1 758926627#2 758926627#3 -759179144#6 -759179144#5 -759179144#4 -759179144#3 -759179144#2 -759179144#1 -759179144#0 -360724307 -1198398084#2 -1198398084#1 -1198398084#0 67298560#0 -67298562#0 67209282#1 67209282#2 67209282#3 132346057#0 132346057#1 132346057#2 132346057#3 132346057#4 132346057#5" />
    </vehicle>

    <vehicle id="flow1.41" type="car" depart="1476.00">
        <route edges="-355037966#4 -355037966#3 -355037966#2 -355037966#1 -355037966#0 -758926627#3 -758926627#2 -758926627#1 -758926627#0 758926632#0 758926632#1 758926632#2 758926632#3 758926626 758926625#0 758926625#1 758926625#2 758926625#3 -759179145#2 -759179145#1 -759179145#0 6310625#0 6310625#1 758926622" />
    </vehicle>

    <vehicle id="flow5.47" type="car" depart="1692.00">
        <route edges="67209282#0 67209282#1 67209282#2 67209282#3 67209282#4 67209282#5 67209282#6 -1198398084#2 -1198398084#1 -1198398084#0 360777554 -118808606#6 -118808606#5 -118808606#4 -67504621" />
    </vehicle>

    <vehicle id="flow4.47" type="car" depart="1692.00">
        <route edges="-758926622 460101507#0 460101507#1 758926625#0 758926625#1 758926625#2 758926625#3 6310614#0 6310614#1 6310614#2 6310614#3 6310614#4 6310614#5 6310614#6 6310614#7 758926627#0 758926627#1 758926627#2 758926627#3 -759179144#6 -759179144#5 -759179144#4 -759179144#3 -759179144#2 -759179144#1 -759179144#0 -360724307 -1198398084#2 -1198398084#1 -1198398084#0 67298560#0 -67298562#0 67209282#1 67209282#2 67209282#3 132346057#0 132346057#1 132346057#2 132346057#3 132346057#4 132346057#5" />
    </vehicle>

    <vehicle id="flow1.47" type="car" depart="1692.00">
        <route edges="-355037966#4 -355037966#3 -355037966#2 -355037966#1 -355037966#0 -758926627#3 -758926627#2 -758926627#1 -758926627#0 758926632#0 758926632#1 758926632#2 758926632#3 758926626 758926625#0 758926625#1 758926625#2 758926625#3 -759179145#2 -759179145#1 -759179145#0 6310625#0 6310625#1 758926622" />
    </vehicle>

    <vehicle id="flow5.49" type="car" depart="1764.00">
        <route edges="67209282#0 67209282#1 67209282#2 67209282#3 67209282#4 67209282#5 67209282#6 -1198398084#2 -1198398084#1 -1198398084#0 360777554 -118808606#6 -118808606#5 -118808606#4 -67504621" />
    </vehicle>
    <vehicle id="flow4.49" type="car" depart="1764.00">
        <route edges="-758926622 460101507#0 460101507#1 758926625#0 758926625#1 758926625#2 758926625#3 6310614#0 6310614#1 6310614#2 6310614#3 6310614#4 6310614#5 6310614#6 6310614#7 758926627#0 758926627#1 758926627#2 758926627#3 -759179144#6 -759179144#5 -759179144#4 -759179144#3 -759179144#2 -759179144#1 -759179144#0 -360724307 -1198398084#2 -1198398084#1 -1198398084#0 67298560#0 -67298562#0 67209282#1 67209282#2 67209282#3 132346057#0 132346057#1 132346057#2 132346057#3 132346057#4 132346057#5" />
    </vehicle>
    <vehicle id="flow5.50" type="car" depart="1800.00">
        <route edges="67209282#0 67209282#1 67209282#2 67209282#3 67209282#4 67209282#5 67209282#6 -1198398084#2 -1198398084#1 -1198398084#0 360777554 -118808606#6 -118808606#5 -118808606#4 -67504621" />
    </vehicle>
    <vehicle id="flow4.50" type="car" depart="1800.00">
        <route edges="-758926622 460101507#0 460101507#1 758926625#0 758926625#1 758926625#2 758926625#3 6310614#0 6310614#1 6310614#2 6310614#3 6310614#4 6310614#5 6310614#6 6310614#7 758926627#0 758926627#1 758926627#2 758926627#3 -759179144#6 -759179144#5 -759179144#4 -759179144#3 -759179144#2 -759179144#1 -759179144#0 -360724307 -1198398084#2 -1198398084#1 -1198398084#0 67298560#0 -67298562#0 67209282#1 67209282#2 67209282#3 132346057#0 132346057#1 132346057#2 132346057#3 132346057#4 132346057#5" />
    </vehicle>

    <vehicle id="flow5.51" type="car" depart="1836.00">
        <route edges="67209282#0 67209282#1 67209282#2 67209282#3 67209282#4 67209282#5 67209282#6 -1198398084#2 -1198398084#1 -1198398084#0 360777554 -118808606#6 -118808606#5 -118808606#4 -67504621" />
    </vehicle>
    <vehicle id="flow5.52" type="car" depart="1872.00">
        <route edges="67209282#0 67209282#1 67209282#2 67209282#3 67209282#4 67209282#5 67209282#6 -1198398084#2 -1198398084#1 -1198398084#0 360777554 -118808606#6 -118808606#5 -118808606#4 -67504621" />
    </vehicle>
    <vehicle id="flow4.52" type="car" depart="1872.00">
        <route edges="-758926622 460101507#0 460101507#1 758926625#0 758926625#1 758926625#2 758926625#3 6310614#0 6310614#1 6310614#2 6310614#3 6310614#4 6310614#5 6310614#6 6310614#7 758926627#0 758926627#1 758926627#2 758926627#3 -759179144#6 -759179144#5 -759179144#4 -759179144#3 -759179144#2 -759179144#1 -759179144#0 -360724307 -1198398084#2 -1198398084#1 -1198398084#0 67298560#0 -67298562#0 67209282#1 67209282#2 67209282#3 132346057#0 132346057#1 132346057#2 132346057#3 132346057#4 132346057#5" />
    </vehicle>
    <vehicle id="flow5.53" type="car" depart="1908.00">
        <route edges="67209282#0 67209282#1 67209282#2 67209282#3 67209282#4 67209282#5 67209282#6 -1198398084#2 -1198398084#1 -1198398084#0 360777554 -118808606#6 -118808606#5 -118808606#4 -67504621" />
    </vehicle>
    <vehicle id="flow4.53" type="car" depart="1908.00">
        <route edges="-758926622 460101507#0 460101507#1 758926625#0 758926625#1 758926625#2 758926625#3 6310614#0 6310614#1 6310614#2 6310614#3 6310614#4 6310614#5 6310614#6 6310614#7 758926627#0 758926627#1 758926627#2 758926627#3 -759179144#6 -759179144#5 -759179144#4 -759179144#3 -759179144#2 -759179144#1 -759179144#0 -360724307 -1198398084#2 -1198398084#1 -1198398084#0 67298560#0 -67298562#0 67209282#1 67209282#2 67209282#3 132346057#0 132346057#1 132346057#2 132346057#3 132346057#4 132346057#5" />
    </vehicle>
    <vehicle id="flow1.53" type="car" depart="1908.00">
        <route edges="-355037966#4 -355037966#3 -355037966#2 -355037966#1 -355037966#0 -758926627#3 -758926627#2 -758926627#1 -758926627#0 758926632#0 758926632#1 758926632#2 758926632#3 758926626 758926625#0 758926625#1 758926625#2 758926625#3 -759179145#2 -759179145#1 -759179145#0 6310625#0 6310625#1 758926622" />
    </vehicle>
    <vehicle id="flow5.54" type="car" depart="1944.00">
        <route edges="67209282#0 67209282#1 67209282#2 67209282#3 67209282#4 67209282#5 67209282#6 -1198398084#2 -1198398084#1 -1198398084#0 360777554 -118808606#6 -118808606#5 -118808606#4 -67504621" />
    </vehicle>

    <vehicle id="flow4.54" type="car" depart="1944.00">
        <route edges="-758926622 460101507#0 460101507#1 758926625#0 758926625#1 758926625#2 758926625#3 6310614#0 6310614#1 6310614#2 6310614#3 6310614#4 6310614#5 6310614#6 6310614#7 758926627#0 758926627#1 758926627#2 758926627#3 -759179144#6 -759179144#5 -759179144#4 -759179144#3 -759179144#2 -759179144#1 -759179144#0 -360724307 -1198398084#2 -1198398084#1 -1198398084#0 67298560#0 -67298562#0 67209282#1 67209282#2 67209282#3 132346057#0 132346057#1 132346057#2 132346057#3 132346057#4 132346057#5" />
    </vehicle>

    <vehicle id="flow1.54" type="car" depart="1944.00">
        <route edges="-355037966#4 -355037966#3 -355037966#2 -355037966#1 -355037966#0 -758926627#3 -758926627#2 -758926627#1 -758926627#0 758926632#0 758926632#1 758926632#2 758926632#3 758926626 758926625#0 758926625#1 758926625#2 758926625#3 -759179145#2 -759179145#1 -759179145#0 6310625#0 6310625#1 758926622" />
    </vehicle>

    <vehicle id="flow5.57" type="car" depart="2052.00">
        <route edges="67209282#0 67209282#1 67209282#2 67209282#3 67209282#4 67209282#5 67209282#6 -1198398084#2 -1198398084#1 -1198398084#0 360777554 -118808606#6 -118808606#5 -118808606#4 -67504621" />
    </vehicle>

    <vehicle id="flow5.59" type="car" depart="2124.00">
        <route edges="67209282#0 67209282#1 67209282#2 67209282#3 67209282#4 67209282#5 67209282#6 -1198398084#2 -1198398084#1 -1198398084#0 360777554 -118808606#6 -118808606#5 -118808606#4 -67504621" />
    </vehicle>

    <vehicle id="flow4.59" type="car" depart="2124.00">
        <route edges="-758926622 460101507#0 460101507#1 758926625#0 758926625#1 758926625#2 758926625#3 6310614#0 6310614#1 6310614#2 6310614#3 6310614#4 6310614#5 6310614#6 6310614#7 758926627#0 758926627#1 758926627#2 758926627#3 -759179144#6 -759179144#5 -759179144#4 -759179144#3 -759179144#2 -759179144#1 -759179144#0 -360724307 -1198398084#2 -1198398084#1 -1198398084#0 67298560#0 -67298562#0 67209282#1 67209282#2 67209282#3 132346057#0 132346057#1 132346057#2 132346057#3 132346057#4 132346057#5" />
    </vehicle>

    <vehicle id="flow1.59" type="car" depart="2124.00">
        <route edges="-355037966#4 -355037966#3 -355037966#2 -355037966#1 -355037966#0 -758926627#3 -758926627#2 -758926627#1 -758926627#0 758926632#0 758926632#1 758926632#2 758926632#3 758926626 758926625#0 758926625#1 758926625#2 758926625#3 -759179145#2 -759179145#1 -759179145#0 6310625#0 6310625#1 758926622" />
    </vehicle>

    <vehicle id="flow5.61" type="car" depart="2196.00">
        <route edges="67209282#0 67209282#1 67209282#2 67209282#3 67209282#4 67209282#5 67209282#6 -1198398084#2 -1198398084#1 -1198398084#0 360777554 -118808606#6 -118808606#5 -118808606#4 -67504621" />
    </vehicle>

    <vehicle id="flow4.61" type="car" depart="2196.00">
        <route edges="-758926622 460101507#0 460101507#1 758926625#0 758926625#1 758926625#2 758926625#3 6310614#0 6310614#1 6310614#2 6310614#3 6310614#4 6310614#5 6310614#6 6310614#7 758926627#0 758926627#1 758926627#2 758926627#3 -759179144#6 -759179144#5 -759179144#4 -759179144#3 -759179144#2 -759179144#1 -759179144#0 -360724307 -1198398084#2 -1198398084#1 -1198398084#0 67298560#0 -67298562#0 67209282#1 67209282#2 67209282#3 132346057#0 132346057#1 132346057#2 132346057#3 132346057#4 132346057#5" />
    </vehicle>

    <vehicle id="flow5.66" type="car" depart="2376.00">
        <route edges="67209282#0 67209282#1 67209282#2 67209282#3 67209282#4 67209282#5 67209282#6 -1198398084#2 -1198398084#1 -1198398084#0 360777554 -118808606#6 -118808606#5 -118808606#4 -67504621" />
    </vehicle>

    <vehicle id="flow4.66" type="car" depart="2376.00">
        <route edges="-758926622 460101507#0 460101507#1 758926625#0 758926625#1 758926625#2 758926625#3 6310614#0 6310614#1 6310614#2 6310614#3 6310614#4 6310614#5 6310614#6 6310614#7 758926627#0 758926627#1 758926627#2 758926627#3 -759179144#6 -759179144#5 -759179144#4 -759179144#3 -759179144#2 -759179144#1 -759179144#0 -360724307 -1198398084#2 -1198398084#1 -1198398084#0 67298560#0 -67298562#0 67209282#1 67209282#2 67209282#3 132346057#0 132346057#1 132346057#2 132346057#3 132346057#4 132346057#5" />
    </vehicle>

    <vehicle id="flow1.66" type="car" depart="2376.00">
        <route edges="-355037966#4 -355037966#3 -355037966#2 -355037966#1 -355037966#0 -758926627#3 -758926627#2 -758926627#1 -758926627#0 758926632#0 758926632#1 758926632#2 758926632#3 758926626 758926625#0 758926625#1 758926625#2 758926625#3 -759179145#2 -759179145#1 -759179145#0 6310625#0 6310625#1 758926622" />
    </vehicle>

    <vehicle id="flow5.69" type="car" depart="2484.00">
        <route edges="67209282#0 67209282#1 67209282#2 67209282#3 67209282#4 67209282#5 67209282#6 -1198398084#2 -1198398084#1 -1198398084#0 360777554 -118808606#6 -118808606#5 -118808606#4 -67504621" />
    </vehicle>

    <vehicle id="flow4.69" type="car" depart="2484.00">
        <route edges="-758926622 460101507#0 460101507#1 758926625#0 758926625#1 758926625#2 758926625#3 6310614#0 6310614#1 6310614#2 6310614#3 6310614#4 6310614#5 6310614#6 6310614#7 758926627#0 758926627#1 758926627#2 758926627#3 -759179144#6 -759179144#5 -759179144#4 -759179144#3 -759179144#2 -759179144#1 -759179144#0 -360724307 -1198398084#2 -1198398084#1 -1198398084#0 67298560#0 -67298562#0 67209282#1 67209282#2 67209282#3 132346057#0 132346057#1 132346057#2 132346057#3 132346057#4 132346057#5" />
    </vehicle>

    <vehicle id="flow1.69" type="car" depart="2484.00">