<?xml version="1.0" encoding="UTF-8"?>

<!-- generated on 2024-11-13 13:12:35 by Eclipse SUMO netedit Version 1.21.0
<neteditConfiguration xmlns:xsi="http://www.w3.org/2001/XMLSchema-instance" xsi:noNamespaceSchemaLocation="http://sumo.dlr.de/xsd/neteditConfiguration.xsd">

    <input>
        <sumocfg-file value="C:\Users\adrie\OneDrive\Bureau\Modélisation\Map_Smartseille.sumocfg"/>
        <additional-files value="C:\Users\adrie\OneDrive\Bureau\Modélisation\Map_Smartseille.add.xml"/>
        <route-files value="C:\Users\adrie\OneDrive\Bureau\Modélisation\Map_Smartseille.rou.xml"/>
        <sumo-net-file value="C:\Users\adrie\OneDrive\Bureau\Modélisation\Map_Smartseille.net.xml"/>
    </input>

    <output>
        <output-file value="C:\Users\adrie\OneDrive\Bureau\Modélisation\Map_Smartseille.net.xml"/>
    </output>

    <processing>
        <geometry.min-radius.fix.railways value="false"/>
        <geometry.max-grade.fix value="false"/>
        <offset.disable-normalization value="true"/>
        <lefthand value="0"/>
    </processing>

    <junctions>
        <no-turnarounds value="true"/>
        <junctions.corner-detail value="5"/>
        <junctions.limit-turn-speed value="5.50"/>
        <rectangular-lane-cut value="0"/>
    </junctions>

    <pedestrian>
        <walkingareas value="0"/>
    </pedestrian>

</neteditConfiguration>
-->

<net version="1.20" junctionCornerDetail="5" limitTurnSpeed="5.50" xmlns:xsi="http://www.w3.org/2001/XMLSchema-instance" xsi:noNamespaceSchemaLocation="http://sumo.dlr.de/xsd/net_file.xsd">

    <location netOffset="0.00,0.00" convBoundary="688507.63,4798546.04,692533.65,4804394.29" origBoundary="5.326665,43.315263,5.374557,43.368751" projParameter="+proj=utm +zone=31 +ellps=WGS84 +datum=WGS84 +units=m +no_defs"/>

    <type id="highway.footway" priority="1" numLanes="1" speed="2.78" allow="pedestrian" oneway="1" width="2.00"/>
    <type id="highway.motorway" priority="14" numLanes="2" speed="39.44" allow="private emergency authority army vip passenger hov taxi bus coach delivery truck trailer motorcycle evehicle custom1 custom2" oneway="1"/>
    <type id="highway.motorway_link" priority="9" numLanes="1" speed="22.22" allow="private emergency authority army vip passenger hov taxi bus coach delivery truck trailer motorcycle evehicle custom1 custom2" oneway="1"/>
    <type id="highway.pedestrian" priority="1" numLanes="1" speed="2.78" allow="pedestrian" oneway="1" width="2.00"/>
    <type id="highway.residential" priority="3" numLanes="1" speed="13.89" disallow="tram rail_urban rail rail_electric rail_fast ship container cable_car subway aircraft wheelchair scooter drone" oneway="0"/>
    <type id="highway.service" priority="1" numLanes="1" speed="5.56" allow="pedestrian delivery bicycle" oneway="0"/>
    <type id="highway.steps" priority="1" numLanes="1" speed="1.39" allow="pedestrian" oneway="1" width="2.00"/>
    <type id="highway.tertiary" priority="10" numLanes="1" speed="22.22" disallow="tram rail_urban rail rail_electric rail_fast ship container cable_car subway aircraft wheelchair scooter drone" oneway="0"/>
    <type id="highway.unclassified" priority="4" numLanes="1" speed="13.89" disallow="tram rail_urban rail rail_electric rail_fast ship container cable_car subway aircraft wheelchair scooter drone" oneway="0"/>
    <type id="railway.rail" priority="20" numLanes="1" speed="44.44" allow="rail" oneway="1"/>
    <type id="railway.subway" priority="18" numLanes="1" speed="27.78" allow="subway" oneway="1"/>

    <edge id=":10142483422_0" function="internal">
        <lane id=":10142483422_0_0" index="0" allow="subway" speed="27.78" length="22.84" shape="692008.71,4799798.45 691995.46,4799817.05"/>
    </edge>
    <edge id=":10142483422_1" function="internal">
        <lane id=":10142483422_1_0" index="0" allow="subway" speed="27.78" length="21.90" shape="692008.71,4799798.45 692005.57,4799802.10 692001.30,4799806.48 691996.93,4799810.79 691993.49,4799814.18"/>
    </edge>
    <edge id=":10142483423_0" function="internal">
        <lane id=":10142483423_0_0" index="0" allow="subway" speed="27.78" length="0.26" shape="691986.09,4799830.26 691985.93,4799830.47"/>
    </edge>
    <edge id=":10142483426_0" function="internal">
        <lane id=":10142483426_0_0" index="0" allow="subway" speed="27.78" length="2.08" shape="691993.35,4799814.32 691992.92,4799814.77 691992.64,4799815.09 691992.39,4799815.42 691992.03,4799815.92"/>
    </edge>
    <edge id=":10142483426_1" function="internal">
        <lane id=":10142483426_1_0" index="0" allow="subway" speed="27.78" length="2.99" shape="691993.78,4799813.50 691992.03,4799815.92"/>
    </edge>
    <edge id=":10778137631_0" function="internal">
        <lane id=":10778137631_0_0" index="0" disallow="tram rail_urban rail rail_electric rail_fast ship container cable_car subway aircraft wheelchair scooter drone" speed="22.22" length="0.26" shape="691894.96,4799653.18 691894.89,4799653.44"/>
    </edge>
    <edge id=":10778137631_1" function="internal">
        <lane id=":10778137631_1_0" index="0" disallow="tram rail_urban rail rail_electric rail_fast ship container cable_car subway aircraft wheelchair scooter drone" speed="22.22" length="0.31" shape="691891.80,4799652.60 691891.88,4799652.30"/>
    </edge>
    <edge id=":1099359883_0" function="internal" bidi=":1099359883_1">
        <lane id=":1099359883_0_0" index="0" allow="rail rail_electric rail_fast" speed="11.11" length="20.04" shape="691629.23,4798954.85 691625.39,4798974.52"/>
    </edge>
    <edge id=":1099359883_1" function="internal" bidi=":1099359883_0">
        <lane id=":1099359883_1_0" index="0" allow="rail rail_electric rail_fast" speed="11.11" length="20.04" shape="691625.39,4798974.52 691629.23,4798954.85"/>
    </edge>
    <edge id=":1099359883_2" function="internal">
        <lane id=":1099359883_2_0" index="0" allow="rail" speed="27.77" length="22.61" shape="691628.32,4798977.43 691628.40,4798972.49 691628.51,4798966.11 691628.74,4798959.75 691629.23,4798954.85"/>
    </edge>
    <edge id=":11117012726_0" function="internal">
        <lane id=":11117012726_0_0" index="0" disallow="tram rail_urban rail rail_electric rail_fast ship container cable_car subway aircraft wheelchair scooter drone" speed="13.89" length="0.30" shape="691995.72,4799407.27 691995.42,4799407.19"/>
    </edge>
    <edge id=":11117012727_0" function="internal">
        <lane id=":11117012727_0_0" index="0" disallow="tram rail_urban rail rail_electric rail_fast ship container cable_car subway aircraft wheelchair scooter drone" speed="22.22" length="0.37" shape="691912.93,4799587.08 691912.88,4799587.18 691912.85,4799587.25 691912.83,4799587.32 691912.80,4799587.43"/>
    </edge>
    <edge id=":11117012727_1" function="internal">
        <lane id=":11117012727_1_0" index="0" disallow="tram rail_urban rail rail_electric rail_fast ship container cable_car subway aircraft wheelchair scooter drone" speed="22.22" length="1.11" shape="691909.70,4799586.63 691909.78,4799586.31 691909.85,4799586.10 691909.94,4799585.89 691910.09,4799585.60"/>
    </edge>
    <edge id=":11117012728_0" function="internal">
        <lane id=":11117012728_0_0" index="0" disallow="tram rail_urban rail rail_electric rail_fast ship container cable_car subway aircraft wheelchair scooter drone" speed="22.22" length="0.30" shape="691955.73,4799448.62 691955.64,4799448.91"/>
    </edge>
    <edge id=":11117012728_1" function="internal">
        <lane id=":11117012728_1_0" index="0" disallow="tram rail_urban rail rail_electric rail_fast ship container cable_car subway aircraft wheelchair scooter drone" speed="22.22" length="0.30" shape="691952.57,4799448.00 691952.66,4799447.72"/>
    </edge>
    <edge id=":11117012729_0" function="internal">
        <lane id=":11117012729_0_0" index="0" disallow="tram rail_urban rail rail_electric rail_fast ship container cable_car subway aircraft wheelchair scooter drone" speed="13.89" length="2.24" shape="691969.42,4799400.83 691971.59,4799401.37"/>
    </edge>
    <edge id=":11117012730_0" function="internal">
        <lane id=":11117012730_0_0" index="0" disallow="tram rail_urban rail rail_electric rail_fast ship container cable_car subway aircraft wheelchair scooter drone" speed="22.22" length="2.07" shape="691971.19,4799384.15 691971.55,4799382.11"/>
    </edge>
    <edge id=":11117012730_1" function="internal">
        <lane id=":11117012730_1_0" index="0" disallow="tram rail_urban rail rail_electric rail_fast ship container cable_car subway aircraft wheelchair scooter drone" speed="22.22" length="2.04" shape="691968.40,4799381.58 691968.04,4799383.58"/>
    </edge>
    <edge id=":11117012731_0" function="internal">
        <lane id=":11117012731_0_0" index="0" disallow="tram rail_urban rail rail_electric rail_fast ship container cable_car subway aircraft wheelchair scooter drone" speed="22.22" length="0.36" shape="691955.67,4798994.27 691955.61,4798994.36 691955.57,4798994.42 691955.54,4798994.48 691955.50,4798994.58"/>
    </edge>
    <edge id=":11117012731_1" function="internal">
        <lane id=":11117012731_1_0" index="0" disallow="tram rail_urban rail rail_electric rail_fast ship container cable_car subway aircraft wheelchair scooter drone" speed="22.22" length="1.07" shape="691952.55,4798993.34 691952.67,4798993.05 691952.77,4798992.85 691952.88,4798992.67 691953.06,4798992.41"/>
    </edge>
    <edge id=":11117012738_0" function="internal">
        <lane id=":11117012738_0_0" index="0" disallow="tram rail_urban rail rail_electric rail_fast ship container cable_car subway aircraft wheelchair scooter drone" speed="6.52" length="8.82" shape="691981.73,4799325.39 691982.16,4799327.75 691983.24,4799329.43 691984.98,4799330.44 691987.37,4799330.78"/>
    </edge>
    <edge id=":11117012738_1" function="internal">
        <lane id=":11117012738_1_0" index="0" disallow="tram rail_urban rail rail_electric rail_fast ship container cable_car subway aircraft wheelchair scooter drone" speed="22.22" length="10.83" shape="691981.73,4799325.39 691981.89,4799336.22"/>
    </edge>
    <edge id=":11117012738_2" function="internal">
        <lane id=":11117012738_2_0" index="0" disallow="tram rail_urban rail rail_electric rail_fast ship container cable_car subway aircraft wheelchair scooter drone" speed="15.36" length="9.09" shape="691976.91,4799334.30 691977.99,4799331.85 691978.50,4799330.07 691978.62,4799328.20 691978.53,4799325.51"/>
    </edge>
    <edge id=":11117012738_3" function="internal">
        <lane id=":11117012738_3_0" index="0" disallow="tram rail_urban rail rail_electric rail_fast ship container cable_car subway aircraft wheelchair scooter drone" speed="8.79" length="3.47" shape="691976.91,4799334.30 691978.19,4799332.76 691979.50,4799332.09"/>
    </edge>
    <edge id=":11117012738_4" function="internal">
        <lane id=":11117012738_4_0" index="0" disallow="tram rail_urban rail rail_electric rail_fast ship container cable_car subway aircraft wheelchair scooter drone" speed="8.79" length="8.05" shape="691979.50,4799332.09 691980.35,4799331.66 691983.41,4799331.00 691987.37,4799330.78"/>
    </edge>
    <edge id=":11117012755_0" function="internal">
        <lane id=":11117012755_0_0" index="0" disallow="tram rail_urban rail rail_electric rail_fast ship container cable_car subway aircraft wheelchair scooter drone" speed="22.22" length="5.03" shape="691943.63,4799489.53 691942.25,4799494.37"/>
    </edge>
    <edge id=":11117012755_1" function="internal">
        <lane id=":11117012755_1_0" index="0" disallow="tram rail_urban rail rail_electric rail_fast ship container cable_car subway aircraft wheelchair scooter drone" speed="22.22" length="5.09" shape="691939.17,4799493.52 691940.57,4799488.63"/>
    </edge>
    <edge id=":11117012758_0" function="internal">
        <lane id=":11117012758_0_0" index="0" disallow="tram rail_urban rail rail_electric rail_fast ship container cable_car subway aircraft wheelchair scooter drone" speed="22.22" length="0.31" shape="691963.22,4799421.20 691963.14,4799421.50"/>
    </edge>
    <edge id=":11117012758_1" function="internal">
        <lane id=":11117012758_1_0" index="0" disallow="tram rail_urban rail rail_electric rail_fast ship container cable_car subway aircraft wheelchair scooter drone" speed="22.22" length="0.27" shape="691960.05,4799420.68 691960.11,4799420.42"/>
    </edge>
    <edge id=":11117012761_0" function="internal">
        <lane id=":11117012761_0_0" index="0" allow="pedestrian delivery bicycle" speed="5.56" length="4.58" shape="691864.74,4799743.67 691860.32,4799742.45"/>
    </edge>
    <edge id=":11117012761_1" function="internal">
        <lane id=":11117012761_1_0" index="0" allow="pedestrian delivery bicycle" speed="5.56" length="4.55" shape="691861.19,4799739.37 691865.57,4799740.58"/>
    </edge>
    <edge id=":11117012763_0" function="internal">
        <lane id=":11117012763_0_0" index="0" disallow="tram rail_urban rail rail_electric rail_fast ship container cable_car subway aircraft wheelchair scooter drone" speed="22.22" length="5.34" shape="691880.16,4799707.91 691878.80,4799713.07"/>
    </edge>
    <edge id=":11117012763_1" function="internal">
        <lane id=":11117012763_1_0" index="0" disallow="tram rail_urban rail rail_electric rail_fast ship container cable_car subway aircraft wheelchair scooter drone" speed="22.22" length="5.38" shape="691875.70,4799712.27 691877.07,4799707.07"/>
    </edge>
    <edge id=":11117012767_0" function="internal">
        <lane id=":11117012767_0_0" index="0" allow="pedestrian delivery bicycle" speed="5.56" length="4.86" shape="691854.99,4799778.01 691853.56,4799777.91 691852.58,4799777.80 691851.60,4799777.62 691850.19,4799777.34"/>
    </edge>
    <edge id=":11117012767_1" function="internal">
        <lane id=":11117012767_1_0" index="0" allow="pedestrian delivery bicycle" speed="5.56" length="4.42" shape="691850.81,4799774.20 691852.09,4799774.46 691852.98,4799774.62 691853.87,4799774.73 691855.17,4799774.82"/>
    </edge>
    <edge id=":11117012768_0" function="internal">
        <lane id=":11117012768_0_0" index="0" allow="pedestrian delivery bicycle" speed="5.56" length="4.18" shape="691836.12,4799839.77 691832.19,4799838.37"/>
    </edge>
    <edge id=":11117012768_1" function="internal">
        <lane id=":11117012768_1_0" index="0" allow="pedestrian delivery bicycle" speed="5.56" length="4.35" shape="691833.16,4799835.31 691837.26,4799836.78"/>
    </edge>
    <edge id=":11119491638_0" function="internal">
        <lane id=":11119491638_0_0" index="0" allow="pedestrian delivery bicycle" speed="5.56" length="5.20" shape="691968.87,4799442.82 691967.53,4799447.85"/>
    </edge>
    <edge id=":11119491638_1" function="internal">
        <lane id=":11119491638_1_0" index="0" allow="pedestrian delivery bicycle" speed="5.56" length="5.16" shape="691964.44,4799447.01 691965.77,4799442.02"/>
    </edge>
    <edge id=":11119491639_0" function="internal">
        <lane id=":11119491639_0_0" index="0" allow="pedestrian delivery bicycle" speed="5.56" length="5.13" shape="691955.35,4799492.68 691953.97,4799497.62"/>
    </edge>
    <edge id=":11119491639_1" function="internal">
        <lane id=":11119491639_1_0" index="0" allow="pedestrian delivery bicycle" speed="5.56" length="5.09" shape="691950.89,4799496.74 691952.26,4799491.84"/>
    </edge>
    <edge id=":11119491640_0" function="internal">
        <lane id=":11119491640_0_0" index="0" allow="pedestrian delivery bicycle" speed="5.56" length="5.06" shape="691931.43,4799576.50 691930.04,4799581.36"/>
    </edge>
    <edge id=":11119491640_1" function="internal">
        <lane id=":11119491640_1_0" index="0" allow="pedestrian delivery bicycle" speed="5.56" length="5.05" shape="691926.97,4799580.48 691928.35,4799575.62"/>
    </edge>
    <edge id=":11119491641_0" function="internal">
        <lane id=":11119491641_0_0" index="0" allow="pedestrian delivery bicycle" speed="5.56" length="5.03" shape="691892.73,4799711.93 691891.35,4799716.77"/>
    </edge>
    <edge id=":11119491641_1" function="internal">
        <lane id=":11119491641_1_0" index="0" allow="pedestrian delivery bicycle" speed="5.56" length="5.03" shape="691888.27,4799715.89 691889.65,4799711.05"/>
    </edge>
    <edge id=":11132236817_0" function="internal">
        <lane id=":11132236817_0_0" index="0" disallow="tram rail_urban rail rail_electric rail_fast ship container cable_car subway aircraft wheelchair scooter drone" speed="13.89" length="2.41" shape="691984.92,4799404.65 691982.58,4799404.07"/>
    </edge>
    <edge id=":11132236872_0" function="internal">
        <lane id=":11132236872_0_0" index="0" allow="pedestrian delivery bicycle" speed="4.98" length="5.07" shape="691638.74,4799545.14 691638.51,4799546.53 691638.78,4799547.63 691639.57,4799548.45 691640.86,4799548.99"/>
    </edge>
    <edge id=":11132236872_1" function="internal">
        <lane id=":11132236872_1_0" index="0" allow="pedestrian delivery bicycle" speed="5.21" length="5.23" shape="691631.74,4799546.58 691633.09,4799546.73 691634.19,4799546.37 691635.06,4799545.52 691635.70,4799544.16"/>
    </edge>
    <edge id=":11132236872_2" function="internal">
        <lane id=":11132236872_2_0" index="0" disallow="tram rail_urban rail rail_electric rail_fast ship container cable_car subway aircraft wheelchair scooter drone" speed="13.89" length="9.43" shape="691631.74,4799546.58 691640.86,4799548.99"/>
    </edge>
    <edge id=":11367857758_0" function="internal">
        <lane id=":11367857758_0_0" index="0" allow="pedestrian delivery bicycle" speed="5.22" length="5.19" shape="691417.22,4799784.03 691415.81,4799783.59 691414.60,4799783.66 691413.59,4799784.23 691412.78,4799785.30"/>
    </edge>
    <edge id=":11367857758_1" function="internal">
        <lane id=":11367857758_1_0" index="0" allow="pedestrian delivery bicycle" speed="6.83" length="10.36" shape="691417.22,4799784.03 691414.82,4799782.49 691413.52,4799780.56 691413.33,4799778.24 691414.25,4799775.54"/>
    </edge>
    <edge id=":11367857758_2" function="internal">
        <lane id=":11367857758_2_0" index="0" allow="pedestrian delivery bicycle" speed="5.00" length="5.05" shape="691417.10,4799776.98 691416.66,4799778.30 691416.75,4799779.43 691417.38,4799780.37 691418.55,4799781.12"/>
    </edge>
    <edge id=":11367857758_3" function="internal">
        <lane id=":11367857758_3_0" index="0" disallow="tram rail_urban rail rail_electric rail_fast ship container cable_car subway aircraft wheelchair scooter drone" speed="8.33" length="9.38" shape="691417.10,4799776.98 691412.78,4799785.30"/>
    </edge>
    <edge id=":11367857758_4" function="internal">
        <lane id=":11367857758_4_0" index="0" disallow="tram rail_urban rail rail_electric rail_fast ship container cable_car subway aircraft wheelchair scooter drone" speed="8.33" length="9.31" shape="691409.96,4799783.80 691414.25,4799775.54"/>
    </edge>
    <edge id=":11367857758_5" function="internal">
        <lane id=":11367857758_5_0" index="0" allow="pedestrian delivery bicycle" speed="6.95" length="3.10" shape="691409.96,4799783.80 691411.56,4799781.64 691411.91,4799781.43"/>
    </edge>
    <edge id=":11367857758_6" function="internal">
        <lane id=":11367857758_6_0" index="0" allow="pedestrian delivery bicycle" speed="6.95" length="7.03" shape="691411.91,4799781.43 691413.52,4799780.47 691415.85,4799780.30 691418.55,4799781.12"/>
    </edge>
    <edge id=":11367857761_0" function="internal">
        <lane id=":11367857761_0_0" index="0" allow="pedestrian delivery bicycle" speed="5.37" length="5.29" shape="691429.64,4799789.35 691428.35,4799789.10 691427.20,4799789.35 691426.20,4799790.11 691425.34,4799791.38"/>
    </edge>
    <edge id=":11367857761_1" function="internal">
        <lane id=":11367857761_1_0" index="0" allow="pedestrian delivery bicycle" speed="5.56" length="9.30" shape="691429.64,4799789.35 691421.06,4799785.78"/>
    </edge>
    <edge id=":11367857761_2" function="internal">
        <lane id=":11367857761_2_0" index="0" allow="pedestrian delivery bicycle" speed="5.56" length="9.07" shape="691422.38,4799782.87 691430.76,4799786.35"/>
    </edge>
    <edge id=":11367857761_3" function="internal">
        <lane id=":11367857761_3_0" index="0" allow="pedestrian delivery bicycle" speed="5.56" length="10.39" shape="691422.38,4799782.87 691424.79,4799784.42 691426.09,4799786.35 691426.27,4799788.68 691425.34,4799791.38"/>
    </edge>
    <edge id=":11367857761_4" function="internal">
        <lane id=":11367857761_4_0" index="0" allow="pedestrian delivery bicycle" speed="4.99" length="5.05" shape="691422.50,4799789.93 691422.95,4799788.61 691422.86,4799787.48 691422.23,4799786.54 691421.06,4799785.78"/>
    </edge>
    <edge id=":11367857761_5" function="internal">
        <lane id=":11367857761_5_0" index="0" allow="pedestrian delivery bicycle" speed="5.56" length="10.02" shape="691422.50,4799789.93 691424.08,4799787.61 691425.99,4799786.24 691428.22,4799785.82 691430.76,4799786.35"/>
    </edge>
    <edge id=":11367857762_0" function="internal">
        <lane id=":11367857762_0_0" index="0" allow="pedestrian delivery bicycle" speed="5.56" length="7.46" shape="691418.04,4799808.06 691416.59,4799806.42 691415.43,4799805.43 691414.10,4799804.68 691412.10,4799803.73"/>
    </edge>
    <edge id=":11367857762_1" function="internal">
        <lane id=":11367857762_1_0" index="0" allow="pedestrian delivery bicycle" speed="5.56" length="9.19" shape="691418.04,4799808.06 691416.89,4799806.18 691416.44,4799804.11 691416.68,4799801.86 691417.63,4799799.43"/>
    </edge>
    <edge id=":11367857762_2" function="internal">
        <lane id=":11367857762_2_0" index="0" allow="pedestrian delivery bicycle" speed="5.56" length="5.44" shape="691420.47,4799800.89 691419.87,4799802.39 691419.67,4799803.75 691419.88,4799804.95 691420.50,4799806.01"/>
    </edge>
    <edge id=":11367857762_3" function="internal">
        <lane id=":11367857762_3_0" index="0" allow="pedestrian delivery bicycle" speed="5.56" length="10.01" shape="691420.47,4799800.89 691418.90,4799803.12 691416.98,4799804.34 691414.71,4799804.54 691412.10,4799803.73"/>
    </edge>
    <edge id=":11367857762_4" function="internal">
        <lane id=":11367857762_4_0" index="0" allow="pedestrian delivery bicycle" speed="5.07" length="4.96" shape="691413.48,4799800.84 691414.77,4799801.24 691415.89,4799801.14 691416.84,4799800.54 691417.63,4799799.43"/>
    </edge>
    <edge id=":11367857762_5" function="internal">
        <lane id=":11367857762_5_0" index="0" allow="pedestrian delivery bicycle" speed="5.56" length="8.85" shape="691413.48,4799800.84 691415.84,4799801.97 691417.42,4799802.87 691418.78,4799804.05 691420.50,4799806.01"/>
    </edge>
    <edge id=":11367857763_0" function="internal">
        <lane id=":11367857763_0_0" index="0" allow="pedestrian delivery bicycle" speed="5.10" length="5.01" shape="691408.28,4799801.91 691406.96,4799801.50 691405.82,4799801.59 691404.86,4799802.18 691404.07,4799803.28"/>
    </edge>
    <edge id=":11367857763_1" function="internal">
        <lane id=":11367857763_1_0" index="0" allow="pedestrian delivery bicycle" speed="6.87" length="10.09" shape="691408.28,4799801.91 691405.98,4799800.39 691404.70,4799798.49 691404.46,4799796.22 691405.24,4799793.57"/>
    </edge>
    <edge id=":11367857763_2" function="internal">
        <lane id=":11367857763_2_0" index="0" allow="pedestrian delivery bicycle" speed="5.06" length="4.98" shape="691408.15,4799794.90 691407.77,4799796.21 691407.89,4799797.33 691408.51,4799798.27 691409.65,4799799.02"/>
    </edge>
    <edge id=":11367857763_3" function="internal">
        <lane id=":11367857763_3_0" index="0" disallow="tram rail_urban rail rail_electric rail_fast ship container cable_car subway aircraft wheelchair scooter drone" speed="8.33" length="9.32" shape="691408.15,4799794.90 691404.07,4799803.28"/>
    </edge>
    <edge id=":11367857763_4" function="internal">
        <lane id=":11367857763_4_0" index="0" disallow="tram rail_urban rail rail_electric rail_fast ship container cable_car subway aircraft wheelchair scooter drone" speed="8.33" length="9.16" shape="691401.23,4799801.81 691405.24,4799793.57"/>
    </edge>
    <edge id=":11367857763_5" function="internal">
        <lane id=":11367857763_5_0" index="0" allow="pedestrian delivery bicycle" speed="6.91" length="3.09" shape="691401.23,4799801.81 691402.81,4799799.59 691403.12,4799799.40"/>
    </edge>
    <edge id=":11367857763_6" function="internal">
        <lane id=":11367857763_6_0" index="0" allow="pedestrian delivery bicycle" speed="6.91" length="6.95" shape="691403.12,4799799.40 691404.74,4799798.39 691407.02,4799798.20 691409.65,4799799.02"/>
    </edge>
    <edge id=":1137735833_0" function="internal">
        <lane id=":1137735833_0_0" index="0" disallow="tram rail_urban rail rail_electric rail_fast ship container cable_car subway aircraft wheelchair scooter drone" speed="15.27" length="10.10" shape="691431.30,4799748.96 691426.64,4799757.92"/>
    </edge>
    <edge id=":1137735833_1" function="internal">
        <lane id=":1137735833_1_0" index="0" disallow="tram rail_urban rail rail_electric rail_fast ship container cable_car subway aircraft wheelchair scooter drone" speed="6.58" length="8.54" shape="691421.22,4799749.79 691423.49,4799750.41 691425.46,4799750.22 691427.13,4799749.22 691428.49,4799747.42"/>
    </edge>
    <edge id=":1137735833_2" function="internal">
        <lane id=":1137735833_2_0" index="0" disallow="tram rail_urban rail rail_electric rail_fast ship container cable_car subway aircraft wheelchair scooter drone" speed="7.00" length="7.13" shape="691421.22,4799749.79 691424.49,4799751.53 691426.48,4799753.47 691426.69,4799754.08"/>
    </edge>
    <edge id=":1137735833_4" function="internal">
        <lane id=":1137735833_4_0" index="0" disallow="tram rail_urban rail rail_electric rail_fast ship container cable_car subway aircraft wheelchair scooter drone" speed="7.00" length="3.99" shape="691426.69,4799754.08 691427.20,4799755.60 691426.64,4799757.92"/>
    </edge>
    <edge id=":1137735833_3" function="internal">
        <lane id=":1137735833_3_0" index="0" disallow="tram rail_urban rail rail_electric rail_fast ship container cable_car subway aircraft wheelchair scooter drone" speed="15.27" length="10.23" shape="691423.77,4799756.50 691428.49,4799747.42"/>
    </edge>
    <edge id=":11506306177_0" function="internal">
        <lane id=":11506306177_0_0" index="0" disallow="tram rail_urban rail rail_electric rail_fast ship container cable_car subway aircraft wheelchair scooter drone" speed="22.22" length="7.39" shape="691583.07,4799221.63 691582.45,4799223.74 691581.97,4799225.16 691581.39,4799226.54 691580.46,4799228.53"/>
    </edge>
    <edge id=":11506306177_1" function="internal">
        <lane id=":11506306177_1_0" index="0" disallow="tram rail_urban rail rail_electric rail_fast ship container cable_car subway aircraft wheelchair scooter drone" speed="22.22" length="7.20" shape="691574.67,4799225.81 691575.03,4799223.89 691574.45,4799222.46 691573.78,4799220.99 691573.85,4799218.96"/>
        <lane id=":11506306177_1_1" index="1" disallow="tram rail_urban rail rail_electric rail_fast ship container cable_car subway aircraft wheelchair scooter drone" speed="22.22" length="7.20" shape="691577.57,4799227.17 691577.98,4799225.12 691577.45,4799223.59 691576.82,4799222.02 691576.93,4799219.85"/>
        <lane id=":11506306177_1_2" index="2" disallow="tram rail_urban rail rail_electric rail_fast ship container cable_car subway aircraft wheelchair scooter drone" speed="22.22" length="7.20" shape="691577.57,4799227.17 691578.43,4799225.32 691578.97,4799224.03 691579.42,4799222.70 691580.00,4799220.74"/>
    </edge>
    <edge id=":11506306188_0" function="internal">
        <lane id=":11506306188_0_0" index="0" disallow="tram rail_urban rail rail_electric rail_fast ship container cable_car subway aircraft wheelchair scooter drone" speed="22.22" length="0.86" shape="691569.36,4799252.17 691569.26,4799252.40 691569.18,4799252.55 691569.09,4799252.71 691568.96,4799252.92"/>
    </edge>
    <edge id=":11506306188_1" function="internal">
        <lane id=":11506306188_1_0" index="0" disallow="tram rail_urban rail rail_electric rail_fast ship container cable_car subway aircraft wheelchair scooter drone" speed="22.22" length="0.34" shape="691563.49,4799249.60 691563.52,4799249.56 691563.53,4799249.53 691563.55,4799249.50 691563.57,4799249.45"/>
        <lane id=":11506306188_1_1" index="1" disallow="tram rail_urban rail rail_electric rail_fast ship container cable_car subway aircraft wheelchair scooter drone" speed="22.22" length="0.34" shape="691566.22,4799251.26 691566.30,4799251.13 691566.36,4799251.04 691566.40,4799250.95 691566.47,4799250.81"/>
    </edge>
    <edge id=":11998660385_0" function="internal">
        <lane id=":11998660385_0_0" index="0" allow="pedestrian delivery bicycle" speed="5.56" length="9.40" shape="691333.92,4799179.25 691328.79,4799187.13"/>
    </edge>
    <edge id=":11998660385_1" function="internal">
        <lane id=":11998660385_1_0" index="0" allow="pedestrian delivery bicycle" speed="5.56" length="10.17" shape="691333.92,4799179.25 691332.11,4799181.30 691330.05,4799182.29 691327.72,4799182.23 691325.13,4799181.11"/>
    </edge>
    <edge id=":11998660385_2" function="internal">
        <lane id=":11998660385_2_0" index="0" allow="pedestrian delivery bicycle" speed="5.15" length="5.13" shape="691326.79,4799178.37 691328.11,4799178.95 691329.30,4799179.00 691330.34,4799178.51 691331.24,4799177.50"/>
    </edge>